version 2
run General-0-20170325-18:37:27-12212
attr configname General
attr datetime 20170325-18:37:27
attr experiment General
attr inifile omnetpp.ini
attr iterationvars ""
attr iterationvars2 $repetition=0
attr measurement ""
attr network CloudGaming
attr processid 12212
attr repetition 0
attr replication #0
attr resultdir results
attr runnumber 0
attr seedset 0
param **.autoOutputFileNames true
param **.client.**.commonName "\"Thin Gaming Client\""
param **.payloadType 32
param **.server.**.commonName "\"Cloud Gaming Server\""
param **.server.fileName "\"./data/game.gdf\""
param **.server.networkLayer.ip.procDelay 1s
param **.sessionEnterDelay 10s
param **.sessionLeaveDelay 60s
param **.transmissionStartDelay 20s
param **.transmissionStopDelay 5s

vector 17  CloudGaming.client1.ppp[0].queue  queueLength:vector  ETV
attr interpolationmode  sample-hold
attr title  "queue length, vector"
vector 18  CloudGaming.client1.ppp[0].ppp  txState:vector  ETV
attr interpolationmode  sample-hold
attr title  "tx state, vector"
vector 42  CloudGaming.server.ppp[0].queue  queueLength:vector  ETV
attr interpolationmode  sample-hold
attr title  "queue length, vector"
vector 43  CloudGaming.server.ppp[0].ppp  txState:vector  ETV
attr interpolationmode  sample-hold
attr title  "tx state, vector"
vector 58  CloudGaming.router[0].ppp[0].queue  queueLength:vector  ETV
attr interpolationmode  sample-hold
attr title  "queue length, vector"
vector 59  CloudGaming.router[0].ppp[0].ppp  txState:vector  ETV
attr interpolationmode  sample-hold
attr title  "tx state, vector"
vector 69  CloudGaming.router[0].ppp[1].queue  queueLength:vector  ETV
attr interpolationmode  sample-hold
attr title  "queue length, vector"
vector 70  CloudGaming.router[0].ppp[1].ppp  txState:vector  ETV
attr interpolationmode  sample-hold
attr title  "tx state, vector"
vector 0  CloudGaming.client1.udp  sentPk:vector(packetBytes)  ETV
attr interpolationmode  none
attr source  sentPk
attr title  "packets sent, vector(packetBytes)"
vector 14  CloudGaming.client1.ppp[0].queue  rcvdPk:vector(packetBytes)  ETV
attr interpolationmode  none
attr title  "received packets, vector(packetBytes)"
vector 16  CloudGaming.client1.ppp[0].queue  queueingTime:vector  ETV
attr interpolationmode  none
attr title  "queueing time, vector"
vector 23  CloudGaming.client1.ppp[0].ppp  rcvdPkFromHL:vector(packetBytes)  ETV
attr interpolationmode  none
attr source  packetReceivedFromUpper
attr title  "packets received from higher layer, vector(packetBytes)"
vector 19  CloudGaming.client1.ppp[0].ppp  txPk:vector(packetBytes)  ETV
attr interpolationmode  none
attr source  packetSentToLower
attr title  "packets transmitted, vector(packetBytes)"
vector 72  CloudGaming.router[0].ppp[1].ppp  rxPkOk:vector(packetBytes)  ETV
attr interpolationmode  none
attr source  rxPkOk
attr title  "packets received OK, vector(packetBytes)"
vector 76  CloudGaming.router[0].ppp[1].ppp  passedUpPk:vector(packetBytes)  ETV
attr interpolationmode  none
attr source  packetSentToUpper
attr title  "packets passed to higher layer, vector(packetBytes)"
vector 55  CloudGaming.router[0].ppp[0].queue  rcvdPk:vector(packetBytes)  ETV
attr interpolationmode  none
attr title  "received packets, vector(packetBytes)"
vector 57  CloudGaming.router[0].ppp[0].queue  queueingTime:vector  ETV
attr interpolationmode  none
attr title  "queueing time, vector"
vector 64  CloudGaming.router[0].ppp[0].ppp  rcvdPkFromHL:vector(packetBytes)  ETV
attr interpolationmode  none
attr source  packetReceivedFromUpper
attr title  "packets received from higher layer, vector(packetBytes)"
vector 60  CloudGaming.router[0].ppp[0].ppp  txPk:vector(packetBytes)  ETV
attr interpolationmode  none
attr source  packetSentToLower
attr title  "packets transmitted, vector(packetBytes)"
vector 45  CloudGaming.server.ppp[0].ppp  rxPkOk:vector(packetBytes)  ETV
attr interpolationmode  none
attr source  rxPkOk
attr title  "packets received OK, vector(packetBytes)"
vector 49  CloudGaming.server.ppp[0].ppp  passedUpPk:vector(packetBytes)  ETV
attr interpolationmode  none
attr source  packetSentToUpper
attr title  "packets passed to higher layer, vector(packetBytes)"
vector 25  CloudGaming.server.udp  sentPk:vector(packetBytes)  ETV
attr interpolationmode  none
attr source  sentPk
attr title  "packets sent, vector(packetBytes)"
vector 26  CloudGaming.server.udp  rcvdPk:vector(packetBytes)  ETV
attr interpolationmode  none
attr source  rcvdPk
attr title  "packets received, vector(packetBytes)"
vector 27  CloudGaming.server.udp  passedUpPk:vector(count)  ETV
attr interpolationmode  none
attr title  "packets passed up, vector(count)"
vector 32  CloudGaming.server.rtcp  rcvdPk:vector(packetBytes)  ETV
attr interpolationmode  none
attr source  rcvdPk
attr title  "packets received, vector(packetBytes)"
vector 33  CloudGaming.server.rtcp  endToEndDelay:vector  ETV
attr interpolationmode  none
attr source  messageAge(rcvdPk)
attr title  "end-to-end delay, vector"
attr unit  s
vector 39  CloudGaming.server.ppp[0].queue  rcvdPk:vector(packetBytes)  ETV
attr interpolationmode  none
attr title  "received packets, vector(packetBytes)"
vector 41  CloudGaming.server.ppp[0].queue  queueingTime:vector  ETV
attr interpolationmode  none
attr title  "queueing time, vector"
vector 48  CloudGaming.server.ppp[0].ppp  rcvdPkFromHL:vector(packetBytes)  ETV
attr interpolationmode  none
attr source  packetReceivedFromUpper
attr title  "packets received from higher layer, vector(packetBytes)"
vector 44  CloudGaming.server.ppp[0].ppp  txPk:vector(packetBytes)  ETV
attr interpolationmode  none
attr source  packetSentToLower
attr title  "packets transmitted, vector(packetBytes)"
vector 61  CloudGaming.router[0].ppp[0].ppp  rxPkOk:vector(packetBytes)  ETV
attr interpolationmode  none
attr source  rxPkOk
attr title  "packets received OK, vector(packetBytes)"
vector 65  CloudGaming.router[0].ppp[0].ppp  passedUpPk:vector(packetBytes)  ETV
attr interpolationmode  none
attr source  packetSentToUpper
attr title  "packets passed to higher layer, vector(packetBytes)"
vector 66  CloudGaming.router[0].ppp[1].queue  rcvdPk:vector(packetBytes)  ETV
attr interpolationmode  none
attr title  "received packets, vector(packetBytes)"
vector 68  CloudGaming.router[0].ppp[1].queue  queueingTime:vector  ETV
attr interpolationmode  none
attr title  "queueing time, vector"
vector 75  CloudGaming.router[0].ppp[1].ppp  rcvdPkFromHL:vector(packetBytes)  ETV
attr interpolationmode  none
attr source  packetReceivedFromUpper
attr title  "packets received from higher layer, vector(packetBytes)"
vector 71  CloudGaming.router[0].ppp[1].ppp  txPk:vector(packetBytes)  ETV
attr interpolationmode  none
attr source  packetSentToLower
attr title  "packets transmitted, vector(packetBytes)"
vector 20  CloudGaming.client1.ppp[0].ppp  rxPkOk:vector(packetBytes)  ETV
attr interpolationmode  none
attr source  rxPkOk
attr title  "packets received OK, vector(packetBytes)"
vector 24  CloudGaming.client1.ppp[0].ppp  passedUpPk:vector(packetBytes)  ETV
attr interpolationmode  none
attr source  packetSentToUpper
attr title  "packets passed to higher layer, vector(packetBytes)"
vector 1  CloudGaming.client1.udp  rcvdPk:vector(packetBytes)  ETV
attr interpolationmode  none
attr source  rcvdPk
attr title  "packets received, vector(packetBytes)"
vector 2  CloudGaming.client1.udp  passedUpPk:vector(count)  ETV
attr interpolationmode  none
attr title  "packets passed up, vector(count)"
vector 7  CloudGaming.client1.rtcp  rcvdPk:vector(packetBytes)  ETV
attr interpolationmode  none
attr source  rcvdPk
attr title  "packets received, vector(packetBytes)"
vector 8  CloudGaming.client1.rtcp  endToEndDelay:vector  ETV
attr interpolationmode  none
attr source  messageAge(rcvdPk)
attr title  "end-to-end delay, vector"
attr unit  s
vector 5  CloudGaming.client1.rtp  rcvdPk:vector(packetBytes)  ETV
attr interpolationmode  none
attr source  rcvdPk
attr title  "packets received, vector(packetBytes)"
vector 6  CloudGaming.client1.rtp  endToEndDelay:vector  ETV
attr interpolationmode  none
attr source  messageAge(rcvdPk)
attr title  "end-to-end delay, vector"
attr unit  s
0	29	12.309136991971	28
0	72	15.938769376248	28
0	120	21.945856269481	28
0	152	25.958337438241	28
0	184	31.34367055733	28
0	1162	35.365640758771	52
0	1847	39.029760637464	52
0	1959	44.513224081126	52
0	2026	47.950020883301	52
0	2071	50.085073576936	52
0	2151	53.648464330139	52
0	2263	59.628843037494	52
0	2308	62.256936650715	52
0	2420	67.879667653672	52
0	2532	73.948134438381	60
1	69	14.30982848437	51
1	101	17.939460868647	51
1	117	20.253499069549	51
1	149	23.94654776188	51
1	181	29.18070198985	51
1	435	33.403437820414	51
1	808	34.403680060414	1565
1	1197	35.403655420414	1411
1	1573	36.403668060414	1490
1	1818	37.403669500414	1499
1	1841	38.403672700414	1519
1	1870	39.403678300414	1554
1	1886	40.403688380414	1617
1	1902	41.403695740414	1663
1	1918	42.403694780414	1657
1	1937	43.403707740414	1738
1	1953	44.403700700414	1694
1	1985	45.403693980414	1652
1	2001	46.403682780414	1582
1	2020	47.403686300414	1604
1	2049	48.403682300414	1579
1	2065	49.403679580414	1562
1	2094	50.403684860414	1595
1	2110	51.403685820414	1601
1	2129	52.403683420414	1586
1	2145	53.403681340414	1573
1	2174	54.403680700414	1569
1	2190	55.403678140414	1553
1	2206	56.403674140414	1528
1	2222	57.403662620414	1456
1	2241	58.403659100414	1434
1	2257	59.403656700414	1419
1	2286	60.403645660414	1350
1	2302	61.403643100414	1334
1	2331	62.403644380414	1342
1	2350	63.403644060414	1340
1	2366	64.403648540414	1368
1	2382	65.403651420414	1386
1	2398	66.403647900414	1364
1	2414	67.403654140414	1403
1	2443	68.403657820414	1426
1	2462	69.403667900414	1489
1	2478	70.403681660414	1575
1	2494	71.403679580414	1562
1	2513	72.403676380414	1542
1	2529	73.403674140414	1528
1	2557	74.403676220414	1541
1	2570	75.403690300414	1629
1	2583	76.403686780414	1607
1	2596	77.403685660414	1600
1	2612	78.403690300414	1629
1	2625	79.403688220414	1616
1	2638	80.403678620414	1556
1	2651	81.403675900414	1539
1	2664	82.403675100414	1534
1	2680	83.403675900414	1539
1	2693	84.403680700414	1569
1	2706	85.403678940414	1558
1	2719	86.403690940414	1633
1	2735	87.403695580414	1662
1	2748	88.403673820414	1526
1	2761	89.403668380414	1492
1	2774	90.403668860414	1495
1	2790	91.403675900414	1539
1	2803	92.403669020414	1496
1	2816	93.403659580414	1437
1	2829	94.403667580414	1487
1	2842	95.403679100414	1559
1	2855	96.403684700414	1594
1	2874	97.403682140414	1578
1	2889	98.403690140414	1628
1	2902	99.403689660414	1625
1	2915	100.403684540414	1593
1	2933	101.403687260414	1610
1	2946	102.403687420414	1611
1	2959	103.403685660414	1600
1	2972	104.403679740414	1563
1	2985	105.403682940414	1583
1	2998	106.403685980414	1602
1	3011	107.403684060414	1590
1	3024	108.403703900414	1714
1	3037	109.403693820414	1651
1	3050	110.403683420414	1586
1	3063	111.403687260414	1610
1	3076	112.403690140414	1628
1	3089	113.403690140414	1628
1	3102	114.403703580414	1712
1	3115	115.403712060414	1765
1	3128	116.403705980414	1727
1	3141	117.403696060414	1665
1	3154	118.403695740414	1663
1	3167	119.403691900414	1639
1	3180	120.403705340414	1723
1	3193	121.403702780414	1707
1	3206	122.403694940414	1658
1	3219	123.403678460414	1555
1	3232	124.403685180414	1597
1	3245	125.403667260414	1485
1	3258	126.403672380414	1517
1	3271	127.403661660414	1450
1	3284	128.403658620414	1431
1	3297	129.403663900414	1464
1	3310	130.403650940414	1383
1	3323	131.403660860414	1445
1	3336	132.403650460414	1380
1	3349	133.403651420414	1386
1	3362	134.403649980414	1377
1	3375	135.403648060414	1365
1	3388	136.403642620414	1331
1	3401	137.403643420414	1336
1	3414	138.403643420414	1336
1	3427	139.403642140414	1328
1	3440	140.403649660414	1375
1	3453	141.403654300414	1404
1	3466	142.403654460414	1405
1	3479	143.403660060414	1440
1	3492	144.403664860414	1470
1	3505	145.403665820414	1476
1	3518	146.403667900414	1489
1	3531	147.403671260414	1510
1	3544	148.403670460414	1505
1	3557	149.403669500414	1499
1	3570	150.403662780414	1457
1	3583	151.403660700414	1444
1	3596	152.403662940414	1458
1	3609	153.403660380414	1442
1	3622	154.403666300414	1479
1	3635	155.403664860414	1470
1	3648	156.403660060414	1440
1	3661	157.403660220414	1441
1	3674	158.403667100414	1484
1	3687	159.403663740414	1463
1	3700	160.403664540414	1468
1	3713	161.403659580414	1437
1	3726	162.403658620414	1431
1	3739	163.403651420414	1386
1	3752	164.403648700414	1369
1	3765	165.403646460414	1355
1	3778	166.403639740414	1313
1	3791	167.403633660414	1275
1	3804	168.403630300414	1254
1	3817	169.403621340414	1198
1	3830	170.403622620414	1206
1	3843	171.403620220414	1191
1	3856	172.403618140414	1178
1	3869	173.403619100414	1184
1	3882	174.403622140414	1203
1	3895	175.403627420414	1236
1	3908	176.403630460414	1255
1	3921	177.403636700414	1294
1	3934	178.403644700414	1344
1	3947	179.403649020414	1371
1	3960	180.403671260414	1510
1	3973	181.403685020414	1596
1	3986	182.403684700414	1594
1	3999	183.403689980414	1627
1	4012	184.403680060414	1565
1	4025	185.403676380414	1542
1	4038	186.403683740414	1588
1	4051	187.403688060414	1615
1	4067	189.403686780414	1607
1	4080	190.403683900414	1589
1	4093	191.403686620414	1606
1	4106	192.403673500414	1524
1	4119	193.403670780414	1507
1	4132	194.403667260414	1485
1	4145	195.403660380414	1442
1	4158	196.403665340414	1473
1	4171	197.403658300414	1429
1	4184	198.403650780414	1382
1	4197	199.403657020414	1421
1	4210	200.403670140414	1503
1	4223	201.403668540414	1493
1	4236	202.403680700414	1569
1	4249	203.403678300414	1554
1	4262	204.403664860414	1470
1	4275	205.403666780414	1482
1	4288	206.403670940414	1508
1	4301	207.403668220414	1491
1	4314	208.403670780414	1507
1	4327	209.403676380414	1542
1	4340	210.403687100414	1609
1	4353	211.403694460414	1655
1	4366	212.403690620414	1631
1	4379	213.403692380414	1642
1	4392	214.403680220414	1566
1	4405	215.403678300414	1554
1	4418	216.403667580414	1487
1	4431	217.403687740414	1613
1	4444	218.403689340414	1623
1	4457	219.403686620414	1606
1	4470	220.403661180414	1447
1	4483	221.403654140414	1403
1	4496	222.403646460414	1355
1	4509	223.403650620414	1381
1	4522	224.403647260414	1360
1	4535	225.403648700414	1369
1	4548	226.403641020414	1321
1	4561	227.403640380414	1317
1	4574	228.403636380414	1292
1	4587	229.403636220414	1291
1	4600	230.403637180414	1297
1	4613	231.403633980414	1277
1	4626	232.403627740414	1238
1	4639	233.403621020414	1196
1	4652	234.403624700414	1219
1	4665	235.403618780414	1182
1	4678	236.403636060414	1290
1	4691	237.403643740414	1338
1	4704	238.403636540414	1293
1	4717	239.403632540414	1268
1	4730	240.403618780414	1182
1	4743	241.403622140414	1203
1	4756	242.403621020414	1196
1	4769	243.403622940414	1208
1	4782	244.403627100414	1234
1	4795	245.403632540414	1268
1	4808	246.403632700414	1269
1	4821	247.403640060414	1315
1	4834	248.403638620414	1306
1	4847	249.403645500414	1349
1	4860	250.403644860414	1345
1	4873	251.403637180414	1297
1	4886	252.403635900414	1289
1	4899	253.403633340414	1273
1	4912	254.403637340414	1298
1	4925	255.403641820414	1326
1	4938	256.403647900414	1364
1	4951	257.403646940414	1358
1	4964	258.403651580414	1387
1	4977	259.403645980414	1352
1	4990	260.403643260414	1335
1	5003	261.403642140414	1328
1	5016	262.403646300414	1354
1	5029	263.403648860414	1370
1	5042	264.403647900414	1364
1	5055	265.403650140414	1378
1	5068	266.403645660414	1350
1	5081	267.403645180414	1347
1	5094	268.403654620414	1406
1	5107	269.403660540414	1443
1	5120	270.403673660414	1525
1	5133	271.403693980414	1652
1	5146	272.403694780414	1657
1	5159	273.403663260414	1460
1	5172	274.403441020414	71
1	5185	275.403671100414	1509
1	5198	276.403668380414	1492
1	5211	277.403678780414	1557
1	5224	278.403696700414	1669
1	5237	279.403671900414	1514
1	5250	280.403646300414	1354
1	5263	281.403645020414	1346
1	5276	282.403639580414	1312
1	5289	283.403641660414	1325
1	5302	284.403634460414	1280
1	5315	285.403642300414	1329
1	5328	286.403649820414	1376
1	5341	287.403663740414	1463
1	5354	288.403672860414	1520
1	5370	290.403441020414	71
1	5386	292.403441020414	71
1	5399	293.403437820414	51
1	5418	296.403437820414	51
1	5434	298.403437820414	51
1	5453	301.403437820414	51
1	5469	303.403437820414	51
1	5482	304.403437820414	51
1	5498	306.403437820414	51
1	5511	307.403437820414	51
1	5524	308.403437820414	51
1	5537	309.403437820414	51
1	5550	310.403437820414	51
1	5563	311.403439100414	59
2	69	14.30982848437	1
2	101	17.939460868647	2
2	117	20.253499069549	3
2	149	23.94654776188	4
2	181	29.18070198985	5
2	435	33.403437820414	6
2	808	34.403680060414	7
2	1197	35.403655420414	8
2	1573	36.403668060414	9
2	1818	37.403669500414	10
2	1841	38.403672700414	11
2	1870	39.403678300414	12
2	1886	40.403688380414	13
2	1902	41.403695740414	14
2	1918	42.403694780414	15
2	1937	43.403707740414	16
2	1953	44.403700700414	17
2	1985	45.403693980414	18
2	2001	46.403682780414	19
2	2020	47.403686300414	20
2	2049	48.403682300414	21
2	2065	49.403679580414	22
2	2094	50.403684860414	23
2	2110	51.403685820414	24
2	2129	52.403683420414	25
2	2145	53.403681340414	26
2	2174	54.403680700414	27
2	2190	55.403678140414	28
2	2206	56.403674140414	29
2	2222	57.403662620414	30
2	2241	58.403659100414	31
2	2257	59.403656700414	32
2	2286	60.403645660414	33
2	2302	61.403643100414	34
2	2331	62.403644380414	35
2	2350	63.403644060414	36
2	2366	64.403648540414	37
2	2382	65.403651420414	38
2	2398	66.403647900414	39
2	2414	67.403654140414	40
2	2443	68.403657820414	41
2	2462	69.403667900414	42
2	2478	70.403681660414	43
2	2494	71.403679580414	44
2	2513	72.403676380414	45
2	2529	73.403674140414	46
2	2557	74.403676220414	47
2	2570	75.403690300414	48
2	2583	76.403686780414	49
2	2596	77.403685660414	50
2	2612	78.403690300414	51
2	2625	79.403688220414	52
2	2638	80.403678620414	53
2	2651	81.403675900414	54
2	2664	82.403675100414	55
2	2680	83.403675900414	56
2	2693	84.403680700414	57
2	2706	85.403678940414	58
2	2719	86.403690940414	59
2	2735	87.403695580414	60
2	2748	88.403673820414	61
2	2761	89.403668380414	62
2	2774	90.403668860414	63
2	2790	91.403675900414	64
2	2803	92.403669020414	65
2	2816	93.403659580414	66
2	2829	94.403667580414	67
2	2842	95.403679100414	68
2	2855	96.403684700414	69
2	2874	97.403682140414	70
2	2889	98.403690140414	71
2	2902	99.403689660414	72
2	2915	100.403684540414	73
2	2933	101.403687260414	74
2	2946	102.403687420414	75
2	2959	103.403685660414	76
2	2972	104.403679740414	77
2	2985	105.403682940414	78
2	2998	106.403685980414	79
2	3011	107.403684060414	80
2	3024	108.403703900414	81
2	3037	109.403693820414	82
2	3050	110.403683420414	83
2	3063	111.403687260414	84
2	3076	112.403690140414	85
2	3089	113.403690140414	86
2	3102	114.403703580414	87
2	3115	115.403712060414	88
2	3128	116.403705980414	89
2	3141	117.403696060414	90
2	3154	118.403695740414	91
2	3167	119.403691900414	92
2	3180	120.403705340414	93
2	3193	121.403702780414	94
2	3206	122.403694940414	95
2	3219	123.403678460414	96
2	3232	124.403685180414	97
2	3245	125.403667260414	98
2	3258	126.403672380414	99
2	3271	127.403661660414	100
2	3284	128.403658620414	101
2	3297	129.403663900414	102
2	3310	130.403650940414	103
2	3323	131.403660860414	104
2	3336	132.403650460414	105
2	3349	133.403651420414	106
2	3362	134.403649980414	107
2	3375	135.403648060414	108
2	3388	136.403642620414	109
2	3401	137.403643420414	110
2	3414	138.403643420414	111
2	3427	139.403642140414	112
2	3440	140.403649660414	113
2	3453	141.403654300414	114
2	3466	142.403654460414	115
2	3479	143.403660060414	116
2	3492	144.403664860414	117
2	3505	145.403665820414	118
2	3518	146.403667900414	119
2	3531	147.403671260414	120
2	3544	148.403670460414	121
2	3557	149.403669500414	122
2	3570	150.403662780414	123
2	3583	151.403660700414	124
2	3596	152.403662940414	125
2	3609	153.403660380414	126
2	3622	154.403666300414	127
2	3635	155.403664860414	128
2	3648	156.403660060414	129
2	3661	157.403660220414	130
2	3674	158.403667100414	131
2	3687	159.403663740414	132
2	3700	160.403664540414	133
2	3713	161.403659580414	134
2	3726	162.403658620414	135
2	3739	163.403651420414	136
2	3752	164.403648700414	137
2	3765	165.403646460414	138
2	3778	166.403639740414	139
2	3791	167.403633660414	140
2	3804	168.403630300414	141
2	3817	169.403621340414	142
2	3830	170.403622620414	143
2	3843	171.403620220414	144
2	3856	172.403618140414	145
2	3869	173.403619100414	146
2	3882	174.403622140414	147
2	3895	175.403627420414	148
2	3908	176.403630460414	149
2	3921	177.403636700414	150
2	3934	178.403644700414	151
2	3947	179.403649020414	152
2	3960	180.403671260414	153
2	3973	181.403685020414	154
2	3986	182.403684700414	155
2	3999	183.403689980414	156
2	4012	184.403680060414	157
2	4025	185.403676380414	158
2	4038	186.403683740414	159
2	4051	187.403688060414	160
2	4067	189.403686780414	161
2	4080	190.403683900414	162
2	4093	191.403686620414	163
2	4106	192.403673500414	164
2	4119	193.403670780414	165
2	4132	194.403667260414	166
2	4145	195.403660380414	167
2	4158	196.403665340414	168
2	4171	197.403658300414	169
2	4184	198.403650780414	170
2	4197	199.403657020414	171
2	4210	200.403670140414	172
2	4223	201.403668540414	173
2	4236	202.403680700414	174
2	4249	203.403678300414	175
2	4262	204.403664860414	176
2	4275	205.403666780414	177
2	4288	206.403670940414	178
2	4301	207.403668220414	179
2	4314	208.403670780414	180
2	4327	209.403676380414	181
2	4340	210.403687100414	182
2	4353	211.403694460414	183
2	4366	212.403690620414	184
2	4379	213.403692380414	185
2	4392	214.403680220414	186
2	4405	215.403678300414	187
2	4418	216.403667580414	188
2	4431	217.403687740414	189
2	4444	218.403689340414	190
2	4457	219.403686620414	191
2	4470	220.403661180414	192
2	4483	221.403654140414	193
2	4496	222.403646460414	194
2	4509	223.403650620414	195
2	4522	224.403647260414	196
2	4535	225.403648700414	197
2	4548	226.403641020414	198
2	4561	227.403640380414	199
2	4574	228.403636380414	200
2	4587	229.403636220414	201
2	4600	230.403637180414	202
2	4613	231.403633980414	203
2	4626	232.403627740414	204
2	4639	233.403621020414	205
2	4652	234.403624700414	206
2	4665	235.403618780414	207
2	4678	236.403636060414	208
2	4691	237.403643740414	209
2	4704	238.403636540414	210
2	4717	239.403632540414	211
2	4730	240.403618780414	212
2	4743	241.403622140414	213
2	4756	242.403621020414	214
2	4769	243.403622940414	215
2	4782	244.403627100414	216
2	4795	245.403632540414	217
2	4808	246.403632700414	218
2	4821	247.403640060414	219
2	4834	248.403638620414	220
2	4847	249.403645500414	221
2	4860	250.403644860414	222
2	4873	251.403637180414	223
2	4886	252.403635900414	224
2	4899	253.403633340414	225
2	4912	254.403637340414	226
2	4925	255.403641820414	227
2	4938	256.403647900414	228
2	4951	257.403646940414	229
2	4964	258.403651580414	230
2	4977	259.403645980414	231
2	4990	260.403643260414	232
2	5003	261.403642140414	233
2	5016	262.403646300414	234
2	5029	263.403648860414	235
2	5042	264.403647900414	236
2	5055	265.403650140414	237
2	5068	266.403645660414	238
2	5081	267.403645180414	239
2	5094	268.403654620414	240
2	5107	269.403660540414	241
2	5120	270.403673660414	242
2	5133	271.403693980414	243
2	5146	272.403694780414	244
2	5159	273.403663260414	245
2	5172	274.403441020414	246
2	5185	275.403671100414	247
2	5198	276.403668380414	248
2	5211	277.403678780414	249
2	5224	278.403696700414	250
2	5237	279.403671900414	251
2	5250	280.403646300414	252
2	5263	281.403645020414	253
2	5276	282.403639580414	254
2	5289	283.403641660414	255
2	5302	284.403634460414	256
2	5315	285.403642300414	257
2	5328	286.403649820414	258
2	5341	287.403663740414	259
2	5354	288.403672860414	260
2	5370	290.403441020414	261
2	5386	292.403441020414	262
2	5399	293.403437820414	263
2	5418	296.403437820414	264
2	5434	298.403437820414	265
2	5453	301.403437820414	266
2	5469	303.403437820414	267
2	5482	304.403437820414	268
2	5498	306.403437820414	269
2	5511	307.403437820414	270
2	5524	308.403437820414	271
2	5537	309.403437820414	272
2	5550	310.403437820414	273
2	5563	311.403439100414	274
5	809	34.403680060414	1557
5	1198	35.403655420414	1403
5	1574	36.403668060414	1482
5	1819	37.403669500414	1491
5	1842	38.403672700414	1511
5	1871	39.403678300414	1546
5	1887	40.403688380414	1609
5	1903	41.403695740414	1655
5	1919	42.403694780414	1649
5	1938	43.403707740414	1730
5	1954	44.403700700414	1686
5	1986	45.403693980414	1644
5	2002	46.403682780414	1574
5	2021	47.403686300414	1596
5	2050	48.403682300414	1571
5	2066	49.403679580414	1554
5	2095	50.403684860414	1587
5	2111	51.403685820414	1593
5	2130	52.403683420414	1578
5	2146	53.403681340414	1565
5	2175	54.403680700414	1561
5	2191	55.403678140414	1545
5	2207	56.403674140414	1520
5	2223	57.403662620414	1448
5	2242	58.403659100414	1426
5	2258	59.403656700414	1411
5	2287	60.403645660414	1342
5	2303	61.403643100414	1326
5	2332	62.403644380414	1334
5	2351	63.403644060414	1332
5	2367	64.403648540414	1360
5	2383	65.403651420414	1378
5	2399	66.403647900414	1356
5	2415	67.403654140414	1395
5	2444	68.403657820414	1418
5	2463	69.403667900414	1481
5	2479	70.403681660414	1567
5	2495	71.403679580414	1554
6	809	34.403680060414	1.59477081942
6	1198	35.403655420414	2.578079512753
6	1574	36.403668060414	3.561425486086
6	1819	37.403669500414	4.544760259419
6	1842	38.403672700414	5.528096792752
6	1871	39.403678300414	6.511435726085
6	1887	40.403688380414	7.494779139418
6	1903	41.403695740414	8.478119832751
6	1919	42.403694780414	9.461452206084
6	1938	43.403707740414	10.444798499417
6	1954	44.403700700414	11.42812479275
6	1986	45.403693980414	12.411451406083
6	2002	46.403682780414	13.394773539416
6	2021	47.403686300414	14.378110392749
6	2050	48.403682300414	15.361439726082
6	2066	49.403679580414	16.344770339415
6	2095	50.403684860414	17.328108952748
6	2111	51.403685820414	18.311443246081
6	2130	52.403683420414	19.294774179414
6	2146	53.403681340414	20.278105432747
6	2175	54.403680700414	21.26143812608
6	2191	55.403678140414	22.244768899413
6	2207	56.403674140414	23.228098232746
6	2223	57.403662620414	24.211420046079
6	2242	58.403659100414	25.194749859412
6	2258	59.403656700414	26.178080792745
6	2287	60.403645660414	27.161403086078
6	2303	61.403643100414	28.144733859411
6	2332	62.403644380414	29.128068472744
6	2351	63.403644060414	30.111401486077
6	2367	64.403648540414	31.09473929941
6	2383	65.403651420414	32.078075512743
6	2399	66.403647900414	33.061405326076
6	2415	67.403654140414	34.044744899409
6	2444	68.403657820414	35.028081912742
6	2463	69.403667900414	36.011425326075
6	2479	70.403681660414	36.994772419408
6	2495	71.403679580414	37.978103672741
7	70	14.30982848437	43
7	102	17.939460868647	43
7	118	20.253499069549	43
7	150	23.94654776188	43
7	182	29.18070198985	43
7	436	33.403437820414	43
7	5173	274.403441020414	63
7	5371	290.403441020414	63
7	5387	292.403441020414	63
7	5400	293.403437820414	43
7	5419	296.403437820414	43
7	5435	298.403437820414	43
7	5454	301.403437820414	43
7	5470	303.403437820414	43
7	5483	304.403437820414	43
7	5499	306.403437820414	43
7	5512	307.403437820414	43
7	5525	308.403437820414	43
7	5538	309.403437820414	43
7	5551	310.403437820414	43
7	5564	311.403439100414	51
8	70	14.30982848437	1.500919243376
8	102	17.939460868647	1.857352505713
8	118	20.253499069549	1.000295824826
8	150	23.94654776188	1.067570797978
8	182	29.18070198985	1.000295824826
8	436	33.403437820414	1.000295824826
8	5173	274.403441020414	237.61688731424
8	5371	290.403441020414	247.76602941118
8	5387	292.403441020414	247.42241358103
8	5400	293.403437820414	246.0127455381
8	5419	296.403437820414	244.30047957069
8	5435	298.403437820414	240.83121206716
8	5454	301.403437820414	238.58546906518
8	5470	303.403437820414	234.96242981695
8	5483	304.403437820414	231.96659946589
8	5499	306.403437820414	228.6346619645
8	5512	307.403437820414	224.29553322358
8	5525	308.403437820414	221.34948074468
8	5538	309.403437820414	218.16129132809
8	5551	310.403437820414	213.90581157117
8	5564	311.403439100414	210.06751815019
14	32	12.309136991971	48
14	74	15.938769376248	48
14	122	21.945856269481	48
14	154	25.958337438241	48
14	186	31.34367055733	48
14	1164	35.365640758771	72
14	1849	39.029760637464	72
14	1961	44.513224081126	72
14	2028	47.950020883301	72
14	2073	50.085073576936	72
14	2153	53.648464330139	72
14	2265	59.628843037494	72
14	2310	62.256936650715	72
14	2422	67.879667653672	72
14	2536	73.948134438381	80
16	32	12.309136991971	0
16	74	15.938769376248	0
16	122	21.945856269481	0
16	154	25.958337438241	0
16	186	31.34367055733	0
16	1164	35.365640758771	0
16	1849	39.029760637464	0
16	1961	44.513224081126	0
16	2028	47.950020883301	0
16	2073	50.085073576936	0
16	2153	53.648464330139	0
16	2265	59.628843037494	0
16	2310	62.256936650715	0
16	2422	67.879667653672	0
16	2536	73.948134438381	0
17	0	0	0
18	0	0	0
18	33	12.309136991971	1
18	34	12.309141391971	0
18	75	15.938769376248	1
18	76	15.938773776248	0
18	123	21.945856269481	1
18	124	21.945860669481	0
18	155	25.958337438241	1
18	156	25.958341838241	0
18	187	31.34367055733	1
18	188	31.34367495733	0
18	1165	35.365640758771	1
18	1166	35.365647078771	0
18	1850	39.029760637464	1
18	1851	39.029766957464	0
18	1962	44.513224081126	1
18	1963	44.513230401126	0
18	2029	47.950020883301	1
18	2030	47.950027203301	0
18	2074	50.085073576936	1
18	2075	50.085079896936	0
18	2154	53.648464330139	1
18	2155	53.648470650139	0
18	2266	59.628843037494	1
18	2267	59.628849357494	0
18	2311	62.256936650715	1
18	2312	62.256942970715	0
18	2423	67.879667653672	1
18	2424	67.879673973672	0
18	2537	73.948134438381	1
18	2538	73.948141398381	0
19	33	12.309136991971	55
19	75	15.938769376248	55
19	123	21.945856269481	55
19	155	25.958337438241	55
19	187	31.34367055733	55
19	1165	35.365640758771	79
19	1850	39.029760637464	79
19	1962	44.513224081126	79
19	2029	47.950020883301	79
19	2074	50.085073576936	79
19	2154	53.648464330139	79
19	2266	59.628843037494	79
19	2311	62.256936650715	79
19	2423	67.879667653672	79
19	2537	73.948134438381	87
20	67	14.30982848437	78
20	99	17.939460868647	78
20	115	20.253499069549	78
20	147	23.94654776188	78
20	179	29.18070198985	78
20	433	33.403437820414	78
20	806	34.403680060414	1592
20	1195	35.403655420414	1438
20	1571	36.403668060414	1517
20	1816	37.403669500414	1526
20	1839	38.403672700414	1546
20	1868	39.403678300414	1581
20	1884	40.403688380414	1644
20	1900	41.403695740414	1690
20	1916	42.403694780414	1684
20	1935	43.403707740414	1765
20	1951	44.403700700414	1721
20	1983	45.403693980414	1679
20	1999	46.403682780414	1609
20	2018	47.403686300414	1631
20	2047	48.403682300414	1606
20	2063	49.403679580414	1589
20	2092	50.403684860414	1622
20	2108	51.403685820414	1628
20	2127	52.403683420414	1613
20	2143	53.403681340414	1600
20	2172	54.403680700414	1596
20	2188	55.403678140414	1580
20	2204	56.403674140414	1555
20	2220	57.403662620414	1483
20	2239	58.403659100414	1461
20	2255	59.403656700414	1446
20	2284	60.403645660414	1377
20	2300	61.403643100414	1361
20	2329	62.403644380414	1369
20	2348	63.403644060414	1367
20	2364	64.403648540414	1395
20	2380	65.403651420414	1413
20	2396	66.403647900414	1391
20	2412	67.403654140414	1430
20	2441	68.403657820414	1453
20	2460	69.403667900414	1516
20	2476	70.403681660414	1602
20	2492	71.403679580414	1589
20	2511	72.403676380414	1569
20	2527	73.403674140414	1555
20	2555	74.403676220414	1568
20	2568	75.403690300414	1656
20	2581	76.403686780414	1634
20	2594	77.403685660414	1627
20	2610	78.403690300414	1656
20	2623	79.403688220414	1643
20	2636	80.403678620414	1583
20	2649	81.403675900414	1566
20	2662	82.403675100414	1561
20	2678	83.403675900414	1566
20	2691	84.403680700414	1596
20	2704	85.403678940414	1585
20	2717	86.403690940414	1660
20	2733	87.403695580414	1689
20	2746	88.403673820414	1553
20	2759	89.403668380414	1519
20	2772	90.403668860414	1522
20	2788	91.403675900414	1566
20	2801	92.403669020414	1523
20	2814	93.403659580414	1464
20	2827	94.403667580414	1514
20	2840	95.403679100414	1586
20	2853	96.403684700414	1621
20	2872	97.403682140414	1605
20	2887	98.403690140414	1655
20	2900	99.403689660414	1652
20	2913	100.403684540414	1620
20	2931	101.403687260414	1637
20	2944	102.403687420414	1638
20	2957	103.403685660414	1627
20	2970	104.403679740414	1590
20	2983	105.403682940414	1610
20	2996	106.403685980414	1629
20	3009	107.403684060414	1617
20	3022	108.403703900414	1741
20	3035	109.403693820414	1678
20	3048	110.403683420414	1613
20	3061	111.403687260414	1637
20	3074	112.403690140414	1655
20	3087	113.403690140414	1655
20	3100	114.403703580414	1739
20	3113	115.403712060414	1792
20	3126	116.403705980414	1754
20	3139	117.403696060414	1692
20	3152	118.403695740414	1690
20	3165	119.403691900414	1666
20	3178	120.403705340414	1750
20	3191	121.403702780414	1734
20	3204	122.403694940414	1685
20	3217	123.403678460414	1582
20	3230	124.403685180414	1624
20	3243	125.403667260414	1512
20	3256	126.403672380414	1544
20	3269	127.403661660414	1477
20	3282	128.403658620414	1458
20	3295	129.403663900414	1491
20	3308	130.403650940414	1410
20	3321	131.403660860414	1472
20	3334	132.403650460414	1407
20	3347	133.403651420414	1413
20	3360	134.403649980414	1404
20	3373	135.403648060414	1392
20	3386	136.403642620414	1358
20	3399	137.403643420414	1363
20	3412	138.403643420414	1363
20	3425	139.403642140414	1355
20	3438	140.403649660414	1402
20	3451	141.403654300414	1431
20	3464	142.403654460414	1432
20	3477	143.403660060414	1467
20	3490	144.403664860414	1497
20	3503	145.403665820414	1503
20	3516	146.403667900414	1516
20	3529	147.403671260414	1537
20	3542	148.403670460414	1532
20	3555	149.403669500414	1526
20	3568	150.403662780414	1484
20	3581	151.403660700414	1471
20	3594	152.403662940414	1485
20	3607	153.403660380414	1469
20	3620	154.403666300414	1506
20	3633	155.403664860414	1497
20	3646	156.403660060414	1467
20	3659	157.403660220414	1468
20	3672	158.403667100414	1511
20	3685	159.403663740414	1490
20	3698	160.403664540414	1495
20	3711	161.403659580414	1464
20	3724	162.403658620414	1458
20	3737	163.403651420414	1413
20	3750	164.403648700414	1396
20	3763	165.403646460414	1382
20	3776	166.403639740414	1340
20	3789	167.403633660414	1302
20	3802	168.403630300414	1281
20	3815	169.403621340414	1225
20	3828	170.403622620414	1233
20	3841	171.403620220414	1218
20	3854	172.403618140414	1205
20	3867	173.403619100414	1211
20	3880	174.403622140414	1230
20	3893	175.403627420414	1263
20	3906	176.403630460414	1282
20	3919	177.403636700414	1321
20	3932	178.403644700414	1371
20	3945	179.403649020414	1398
20	3958	180.403671260414	1537
20	3971	181.403685020414	1623
20	3984	182.403684700414	1621
20	3997	183.403689980414	1654
20	4010	184.403680060414	1592
20	4023	185.403676380414	1569
20	4036	186.403683740414	1615
20	4049	187.403688060414	1642
20	4065	189.403686780414	1634
20	4078	190.403683900414	1616
20	4091	191.403686620414	1633
20	4104	192.403673500414	1551
20	4117	193.403670780414	1534
20	4130	194.403667260414	1512
20	4143	195.403660380414	1469
20	4156	196.403665340414	1500
20	4169	197.403658300414	1456
20	4182	198.403650780414	1409
20	4195	199.403657020414	1448
20	4208	200.403670140414	1530
20	4221	201.403668540414	1520
20	4234	202.403680700414	1596
20	4247	203.403678300414	1581
20	4260	204.403664860414	1497
20	4273	205.403666780414	1509
20	4286	206.403670940414	1535
20	4299	207.403668220414	1518
20	4312	208.403670780414	1534
20	4325	209.403676380414	1569
20	4338	210.403687100414	1636
20	4351	211.403694460414	1682
20	4364	212.403690620414	1658
20	4377	213.403692380414	1669
20	4390	214.403680220414	1593
20	4403	215.403678300414	1581
20	4416	216.403667580414	1514
20	4429	217.403687740414	1640
20	4442	218.403689340414	1650
20	4455	219.403686620414	1633
20	4468	220.403661180414	1474
20	4481	221.403654140414	1430
20	4494	222.403646460414	1382
20	4507	223.403650620414	1408
20	4520	224.403647260414	1387
20	4533	225.403648700414	1396
20	4546	226.403641020414	1348
20	4559	227.403640380414	1344
20	4572	228.403636380414	1319
20	4585	229.403636220414	1318
20	4598	230.403637180414	1324
20	4611	231.403633980414	1304
20	4624	232.403627740414	1265
20	4637	233.403621020414	1223
20	4650	234.403624700414	1246
20	4663	235.403618780414	1209
20	4676	236.403636060414	1317
20	4689	237.403643740414	1365
20	4702	238.403636540414	1320
20	4715	239.403632540414	1295
20	4728	240.403618780414	1209
20	4741	241.403622140414	1230
20	4754	242.403621020414	1223
20	4767	243.403622940414	1235
20	4780	244.403627100414	1261
20	4793	245.403632540414	1295
20	4806	246.403632700414	1296
20	4819	247.403640060414	1342
20	4832	248.403638620414	1333
20	4845	249.403645500414	1376
20	4858	250.403644860414	1372
20	4871	251.403637180414	1324
20	4884	252.403635900414	1316
20	4897	253.403633340414	1300
20	4910	254.403637340414	1325
20	4923	255.403641820414	1353
20	4936	256.403647900414	1391
20	4949	257.403646940414	1385
20	4962	258.403651580414	1414
20	4975	259.403645980414	1379
20	4988	260.403643260414	1362
20	5001	261.403642140414	1355
20	5014	262.403646300414	1381
20	5027	263.403648860414	1397
20	5040	264.403647900414	1391
20	5053	265.403650140414	1405
20	5066	266.403645660414	1377
20	5079	267.403645180414	1374
20	5092	268.403654620414	1433
20	5105	269.403660540414	1470
20	5118	270.403673660414	1552
20	5131	271.403693980414	1679
20	5144	272.403694780414	1684
20	5157	273.403663260414	1487
20	5170	274.403441020414	98
20	5183	275.403671100414	1536
20	5196	276.403668380414	1519
20	5209	277.403678780414	1584
20	5222	278.403696700414	1696
20	5235	279.403671900414	1541
20	5248	280.403646300414	1381
20	5261	281.403645020414	1373
20	5274	282.403639580414	1339
20	5287	283.403641660414	1352
20	5300	284.403634460414	1307
20	5313	285.403642300414	1356
20	5326	286.403649820414	1403
20	5339	287.403663740414	1490
20	5352	288.403672860414	1547
20	5368	290.403441020414	98
20	5384	292.403441020414	98
20	5397	293.403437820414	78
20	5416	296.403437820414	78
20	5432	298.403437820414	78
20	5451	301.403437820414	78
20	5467	303.403437820414	78
20	5480	304.403437820414	78
20	5496	306.403437820414	78
20	5509	307.403437820414	78
20	5522	308.403437820414	78
20	5535	309.403437820414	78
20	5548	310.403437820414	78
20	5561	311.403439100414	86
23	33	12.309136991971	48
23	75	15.938769376248	48
23	123	21.945856269481	48
23	155	25.958337438241	48
23	187	31.34367055733	48
23	1165	35.365640758771	72
23	1850	39.029760637464	72
23	1962	44.513224081126	72
23	2029	47.950020883301	72
23	2074	50.085073576936	72
23	2154	53.648464330139	72
23	2266	59.628843037494	72
23	2311	62.256936650715	72
23	2423	67.879667653672	72
23	2537	73.948134438381	80
24	67	14.30982848437	71
24	99	17.939460868647	71
24	115	20.253499069549	71
24	147	23.94654776188	71
24	179	29.18070198985	71
24	433	33.403437820414	71
24	806	34.403680060414	1585
24	1195	35.403655420414	1431
24	1571	36.403668060414	1510
24	1816	37.403669500414	1519
24	1839	38.403672700414	1539
24	1868	39.403678300414	1574
24	1884	40.403688380414	1637
24	1900	41.403695740414	1683
24	1916	42.403694780414	1677
24	1935	43.403707740414	1758
24	1951	44.403700700414	1714
24	1983	45.403693980414	1672
24	1999	46.403682780414	1602
24	2018	47.403686300414	1624
24	2047	48.403682300414	1599
24	2063	49.403679580414	1582
24	2092	50.403684860414	1615
24	2108	51.403685820414	1621
24	2127	52.403683420414	1606
24	2143	53.403681340414	1593
24	2172	54.403680700414	1589
24	2188	55.403678140414	1573
24	2204	56.403674140414	1548
24	2220	57.403662620414	1476
24	2239	58.403659100414	1454
24	2255	59.403656700414	1439
24	2284	60.403645660414	1370
24	2300	61.403643100414	1354
24	2329	62.403644380414	1362
24	2348	63.403644060414	1360
24	2364	64.403648540414	1388
24	2380	65.403651420414	1406
24	2396	66.403647900414	1384
24	2412	67.403654140414	1423
24	2441	68.403657820414	1446
24	2460	69.403667900414	1509
24	2476	70.403681660414	1595
24	2492	71.403679580414	1582
24	2511	72.403676380414	1562
24	2527	73.403674140414	1548
24	2555	74.403676220414	1561
24	2568	75.403690300414	1649
24	2581	76.403686780414	1627
24	2594	77.403685660414	1620
24	2610	78.403690300414	1649
24	2623	79.403688220414	1636
24	2636	80.403678620414	1576
24	2649	81.403675900414	1559
24	2662	82.403675100414	1554
24	2678	83.403675900414	1559
24	2691	84.403680700414	1589
24	2704	85.403678940414	1578
24	2717	86.403690940414	1653
24	2733	87.403695580414	1682
24	2746	88.403673820414	1546
24	2759	89.403668380414	1512
24	2772	90.403668860414	1515
24	2788	91.403675900414	1559
24	2801	92.403669020414	1516
24	2814	93.403659580414	1457
24	2827	94.403667580414	1507
24	2840	95.403679100414	1579
24	2853	96.403684700414	1614
24	2872	97.403682140414	1598
24	2887	98.403690140414	1648
24	2900	99.403689660414	1645
24	2913	100.403684540414	1613
24	2931	101.403687260414	1630
24	2944	102.403687420414	1631
24	2957	103.403685660414	1620
24	2970	104.403679740414	1583
24	2983	105.403682940414	1603
24	2996	106.403685980414	1622
24	3009	107.403684060414	1610
24	3022	108.403703900414	1734
24	3035	109.403693820414	1671
24	3048	110.403683420414	1606
24	3061	111.403687260414	1630
24	3074	112.403690140414	1648
24	3087	113.403690140414	1648
24	3100	114.403703580414	1732
24	3113	115.403712060414	1785
24	3126	116.403705980414	1747
24	3139	117.403696060414	1685
24	3152	118.403695740414	1683
24	3165	119.403691900414	1659
24	3178	120.403705340414	1743
24	3191	121.403702780414	1727
24	3204	122.403694940414	1678
24	3217	123.403678460414	1575
24	3230	124.403685180414	1617
24	3243	125.403667260414	1505
24	3256	126.403672380414	1537
24	3269	127.403661660414	1470
24	3282	128.403658620414	1451
24	3295	129.403663900414	1484
24	3308	130.403650940414	1403
24	3321	131.403660860414	1465
24	3334	132.403650460414	1400
24	3347	133.403651420414	1406
24	3360	134.403649980414	1397
24	3373	135.403648060414	1385
24	3386	136.403642620414	1351
24	3399	137.403643420414	1356
24	3412	138.403643420414	1356
24	3425	139.403642140414	1348
24	3438	140.403649660414	1395
24	3451	141.403654300414	1424
24	3464	142.403654460414	1425
24	3477	143.403660060414	1460
24	3490	144.403664860414	1490
24	3503	145.403665820414	1496
24	3516	146.403667900414	1509
24	3529	147.403671260414	1530
24	3542	148.403670460414	1525
24	3555	149.403669500414	1519
24	3568	150.403662780414	1477
24	3581	151.403660700414	1464
24	3594	152.403662940414	1478
24	3607	153.403660380414	1462
24	3620	154.403666300414	1499
24	3633	155.403664860414	1490
24	3646	156.403660060414	1460
24	3659	157.403660220414	1461
24	3672	158.403667100414	1504
24	3685	159.403663740414	1483
24	3698	160.403664540414	1488
24	3711	161.403659580414	1457
24	3724	162.403658620414	1451
24	3737	163.403651420414	1406
24	3750	164.403648700414	1389
24	3763	165.403646460414	1375
24	3776	166.403639740414	1333
24	3789	167.403633660414	1295
24	3802	168.403630300414	1274
24	3815	169.403621340414	1218
24	3828	170.403622620414	1226
24	3841	171.403620220414	1211
24	3854	172.403618140414	1198
24	3867	173.403619100414	1204
24	3880	174.403622140414	1223
24	3893	175.403627420414	1256
24	3906	176.403630460414	1275
24	3919	177.403636700414	1314
24	3932	178.403644700414	1364
24	3945	179.403649020414	1391
24	3958	180.403671260414	1530
24	3971	181.403685020414	1616
24	3984	182.403684700414	1614
24	3997	183.403689980414	1647
24	4010	184.403680060414	1585
24	4023	185.403676380414	1562
24	4036	186.403683740414	1608
24	4049	187.403688060414	1635
24	4065	189.403686780414	1627
24	4078	190.403683900414	1609
24	4091	191.403686620414	1626
24	4104	192.403673500414	1544
24	4117	193.403670780414	1527
24	4130	194.403667260414	1505
24	4143	195.403660380414	1462
24	4156	196.403665340414	1493
24	4169	197.403658300414	1449
24	4182	198.403650780414	1402
24	4195	199.403657020414	1441
24	4208	200.403670140414	1523
24	4221	201.403668540414	1513
24	4234	202.403680700414	1589
24	4247	203.403678300414	1574
24	4260	204.403664860414	1490
24	4273	205.403666780414	1502
24	4286	206.403670940414	1528
24	4299	207.403668220414	1511
24	4312	208.403670780414	1527
24	4325	209.403676380414	1562
24	4338	210.403687100414	1629
24	4351	211.403694460414	1675
24	4364	212.403690620414	1651
24	4377	213.403692380414	1662
24	4390	214.403680220414	1586
24	4403	215.403678300414	1574
24	4416	216.403667580414	1507
24	4429	217.403687740414	1633
24	4442	218.403689340414	1643
24	4455	219.403686620414	1626
24	4468	220.403661180414	1467
24	4481	221.403654140414	1423
24	4494	222.403646460414	1375
24	4507	223.403650620414	1401
24	4520	224.403647260414	1380
24	4533	225.403648700414	1389
24	4546	226.403641020414	1341
24	4559	227.403640380414	1337
24	4572	228.403636380414	1312
24	4585	229.403636220414	1311
24	4598	230.403637180414	1317
24	4611	231.403633980414	1297
24	4624	232.403627740414	1258
24	4637	233.403621020414	1216
24	4650	234.403624700414	1239
24	4663	235.403618780414	1202
24	4676	236.403636060414	1310
24	4689	237.403643740414	1358
24	4702	238.403636540414	1313
24	4715	239.403632540414	1288
24	4728	240.403618780414	1202
24	4741	241.403622140414	1223
24	4754	242.403621020414	1216
24	4767	243.403622940414	1228
24	4780	244.403627100414	1254
24	4793	245.403632540414	1288
24	4806	246.403632700414	1289
24	4819	247.403640060414	1335
24	4832	248.403638620414	1326
24	4845	249.403645500414	1369
24	4858	250.403644860414	1365
24	4871	251.403637180414	1317
24	4884	252.403635900414	1309
24	4897	253.403633340414	1293
24	4910	254.403637340414	1318
24	4923	255.403641820414	1346
24	4936	256.403647900414	1384
24	4949	257.403646940414	1378
24	4962	258.403651580414	1407
24	4975	259.403645980414	1372
24	4988	260.403643260414	1355
24	5001	261.403642140414	1348
24	5014	262.403646300414	1374
24	5027	263.403648860414	1390
24	5040	264.403647900414	1384
24	5053	265.403650140414	1398
24	5066	266.403645660414	1370
24	5079	267.403645180414	1367
24	5092	268.403654620414	1426
24	5105	269.403660540414	1463
24	5118	270.403673660414	1545
24	5131	271.403693980414	1672
24	5144	272.403694780414	1677
24	5157	273.403663260414	1480
24	5170	274.403441020414	91
24	5183	275.403671100414	1529
24	5196	276.403668380414	1512
24	5209	277.403678780414	1577
24	5222	278.403696700414	1689
24	5235	279.403671900414	1534
24	5248	280.403646300414	1374
24	5261	281.403645020414	1366
24	5274	282.403639580414	1332
24	5287	283.403641660414	1345
24	5300	284.403634460414	1300
24	5313	285.403642300414	1349
24	5326	286.403649820414	1396
24	5339	287.403663740414	1483
24	5352	288.403672860414	1540
24	5368	290.403441020414	91
24	5384	292.403441020414	91
24	5397	293.403437820414	71
24	5416	296.403437820414	71
24	5432	298.403437820414	71
24	5451	301.403437820414	71
24	5467	303.403437820414	71
24	5480	304.403437820414	71
24	5496	306.403437820414	71
24	5509	307.403437820414	71
24	5522	308.403437820414	71
24	5535	309.403437820414	71
24	5548	310.403437820414	71
24	5561	311.403439100414	79
25	44	12.808909240994	51
25	85	16.082108362934	51
25	104	19.253203244723	51
25	133	22.878976963902	51
25	168	28.180406165024	51
25	200	32.403141995588	51
25	211	32.808909240994	1565
25	217	32.825575907661	1411
25	223	32.842242574328	1490
25	229	32.858909240995	1499
25	235	32.875575907662	1519
25	241	32.892242574329	1554
25	247	32.908909240996	1617
25	253	32.925575907663	1663
25	259	32.94224257433	1657
25	265	32.958909240997	1738
25	271	32.975575907664	1694
25	277	32.992242574331	1652
25	283	33.008909240998	1582
25	289	33.025575907665	1604
25	295	33.042242574332	1579
25	301	33.058909240999	1562
25	307	33.075575907666	1595
25	313	33.092242574333	1601
25	319	33.108909241	1586
25	325	33.125575907667	1573
25	331	33.142242574334	1569
25	337	33.158909241001	1553
25	343	33.175575907668	1528
25	349	33.192242574335	1456
25	355	33.208909241002	1434
25	361	33.225575907669	1419
25	367	33.242242574336	1350
25	373	33.258909241003	1334
25	379	33.27557590767	1342
25	385	33.292242574337	1340
25	391	33.308909241004	1368
25	397	33.325575907671	1386
25	403	33.342242574338	1364
25	409	33.358909241005	1403
25	415	33.375575907672	1426
25	421	33.392242574339	1489
25	440	33.408909241006	1575
25	446	33.425575907673	1562
25	452	33.44224257434	1542
25	458	33.458909241007	1528
25	464	33.475575907674	1541
25	470	33.492242574341	1629
25	476	33.508909241008	1607
25	482	33.525575907675	1600
25	488	33.542242574342	1629
25	494	33.558909241009	1616
25	500	33.575575907676	1556
25	506	33.592242574343	1539
25	512	33.60890924101	1534
25	518	33.625575907677	1539
25	524	33.642242574344	1569
25	530	33.658909241011	1558
25	536	33.675575907678	1633
25	542	33.692242574345	1662
25	548	33.708909241012	1526
25	554	33.725575907679	1492
25	560	33.742242574346	1495
25	566	33.758909241013	1539
25	572	33.77557590768	1496
25	578	33.792242574347	1437
25	584	33.808909241014	1487
25	590	33.825575907681	1559
25	596	33.842242574348	1594
25	602	33.858909241015	1578
25	608	33.875575907682	1628
25	614	33.892242574349	1625
25	620	33.908909241016	1593
25	626	33.925575907683	1610
25	632	33.94224257435	1611
25	638	33.958909241017	1600
25	644	33.975575907684	1563
25	650	33.992242574351	1583
25	656	34.008909241018	1602
25	662	34.025575907685	1590
25	668	34.042242574352	1714
25	674	34.058909241019	1651
25	680	34.075575907686	1586
25	686	34.092242574353	1610
25	692	34.10890924102	1628
25	698	34.125575907687	1628
25	704	34.142242574354	1712
25	710	34.158909241021	1765
25	716	34.175575907688	1727
25	722	34.192242574355	1665
25	728	34.208909241022	1663
25	734	34.225575907689	1639
25	740	34.242242574356	1723
25	746	34.258909241023	1707
25	752	34.27557590769	1658
25	758	34.292242574357	1555
25	764	34.308909241024	1597
25	770	34.325575907691	1485
25	776	34.342242574358	1517
25	782	34.358909241025	1450
25	788	34.375575907692	1431
25	794	34.392242574359	1464
25	816	34.408909241026	1383
25	822	34.425575907693	1445
25	828	34.44224257436	1380
25	834	34.458909241027	1386
25	840	34.475575907694	1377
25	846	34.492242574361	1365
25	852	34.508909241028	1331
25	858	34.525575907695	1336
25	864	34.542242574362	1336
25	870	34.558909241029	1328
25	876	34.575575907696	1375
25	882	34.592242574363	1404
25	888	34.60890924103	1405
25	894	34.625575907697	1440
25	900	34.642242574364	1470
25	906	34.658909241031	1476
25	912	34.675575907698	1489
25	918	34.692242574365	1510
25	924	34.708909241032	1505
25	930	34.725575907699	1499
25	936	34.742242574366	1457
25	942	34.758909241033	1444
25	948	34.7755759077	1458
25	954	34.792242574367	1442
25	960	34.808909241034	1479
25	966	34.825575907701	1470
25	972	34.842242574368	1440
25	978	34.858909241035	1441
25	984	34.875575907702	1484
25	990	34.892242574369	1463
25	996	34.908909241036	1468
25	1002	34.925575907703	1437
25	1008	34.94224257437	1431
25	1014	34.958909241037	1386
25	1020	34.975575907704	1369
25	1026	34.992242574371	1355
25	1032	35.008909241038	1313
25	1038	35.025575907705	1275
25	1044	35.042242574372	1254
25	1050	35.058909241039	1198
25	1056	35.075575907706	1206
25	1062	35.092242574373	1191
25	1068	35.10890924104	1178
25	1074	35.125575907707	1184
25	1080	35.142242574374	1203
25	1086	35.158909241041	1236
25	1092	35.175575907708	1255
25	1098	35.192242574375	1294
25	1104	35.208909241042	1344
25	1110	35.225575907709	1371
25	1116	35.242242574376	1510
25	1122	35.258909241043	1596
25	1128	35.27557590771	1594
25	1134	35.292242574377	1627
25	1140	35.308909241044	1565
25	1146	35.325575907711	1542
25	1152	35.342242574378	1588
25	1158	35.358909241045	1615
25	1177	35.375575907712	1607
25	1183	35.392242574379	1589
25	1205	35.408909241046	1606
25	1211	35.425575907713	1524
25	1217	35.44224257438	1507
25	1223	35.458909241047	1485
25	1229	35.475575907714	1442
25	1235	35.492242574381	1473
25	1241	35.508909241048	1429
25	1247	35.525575907715	1382
25	1253	35.542242574382	1421
25	1259	35.558909241049	1503
25	1265	35.575575907716	1493
25	1271	35.592242574383	1569
25	1277	35.60890924105	1554
25	1283	35.625575907717	1470
25	1289	35.642242574384	1482
25	1295	35.658909241051	1508
25	1301	35.675575907718	1491
25	1307	35.692242574385	1507
25	1313	35.708909241052	1542
25	1319	35.725575907719	1609
25	1325	35.742242574386	1655
25	1331	35.758909241053	1631
25	1337	35.77557590772	1642
25	1343	35.792242574387	1566
25	1349	35.808909241054	1554
25	1355	35.825575907721	1487
25	1361	35.842242574388	1613
25	1367	35.858909241055	1623
25	1373	35.875575907722	1606
25	1379	35.892242574389	1447
25	1385	35.908909241056	1403
25	1391	35.925575907723	1355
25	1397	35.94224257439	1381
25	1403	35.958909241057	1360
25	1409	35.975575907724	1369
25	1415	35.992242574391	1321
25	1421	36.008909241058	1317
25	1427	36.025575907725	1292
25	1433	36.042242574392	1291
25	1439	36.058909241059	1297
25	1445	36.075575907726	1277
25	1451	36.092242574393	1238
25	1457	36.10890924106	1196
25	1463	36.125575907727	1219
25	1469	36.142242574394	1182
25	1475	36.158909241061	1290
25	1481	36.175575907728	1338
25	1487	36.192242574395	1293
25	1493	36.208909241062	1268
25	1499	36.225575907729	1182
25	1505	36.242242574396	1203
25	1511	36.258909241063	1196
25	1517	36.27557590773	1208
25	1523	36.292242574397	1234
25	1529	36.308909241064	1268
25	1535	36.325575907731	1269
25	1541	36.342242574398	1315
25	1547	36.358909241065	1306
25	1553	36.375575907732	1349
25	1559	36.392242574399	1345
25	1581	36.408909241066	1297
25	1587	36.425575907733	1289
25	1593	36.4422425744	1273
25	1599	36.458909241067	1298
25	1605	36.475575907734	1326
25	1611	36.492242574401	1364
25	1617	36.508909241068	1358
25	1623	36.525575907735	1387
25	1629	36.542242574402	1352
25	1635	36.558909241069	1335
25	1641	36.575575907736	1328
25	1647	36.592242574403	1354
25	1653	36.60890924107	1370
25	1659	36.625575907737	1364
25	1665	36.642242574404	1378
25	1671	36.658909241071	1350
25	1677	36.675575907738	1347
25	1683	36.692242574405	1406
25	1689	36.708909241072	1443
25	1695	36.725575907739	1525
25	1701	36.742242574406	1652
25	1707	36.758909241073	1657
25	1713	36.77557590774	1460
25	1717	36.786553706178	71
25	1722	36.792242574407	1509
25	1728	36.808909241074	1492
25	1734	36.825575907741	1557
25	1740	36.842242574408	1669
25	1746	36.858909241075	1514
25	1752	36.875575907742	1354
25	1758	36.892242574409	1346
25	1764	36.908909241076	1312
25	1770	36.925575907743	1325
25	1776	36.94224257441	1280
25	1782	36.958909241077	1329
25	1788	36.975575907744	1376
25	1794	36.992242574411	1463
25	1800	37.008909241078	1520
25	1924	42.637411609236	71
25	1972	44.981027439385	71
25	2007	47.39069228231	51
25	2116	52.102958249728	51
25	2228	57.572225753259	51
25	2337	62.817968755233	51
25	2449	68.441008003465	51
25	2516	72.436838354526	51
25	2599	77.768775855911	51
25	2667	83.107904596838	51
25	2722	87.053957075738	51
25	2777	91.242146492324	51
25	2858	96.497626249244	51
25	2918	101.335920950222	59
26	56	13.309532659544	28
26	88	16.939165043821	28
26	136	22.946251937054	28
26	165	26.958733105814	28
26	197	32.344066224903	28
26	4054	188.403141995588	52
26	5357	289.403141995588	52
26	5373	291.403141995588	52
26	5402	294.403141995588	52
26	5405	295.403141995588	52
26	5421	297.403141995588	52
26	5437	299.403141995588	52
26	5440	300.403141995588	52
26	5456	302.403141995588	52
26	5485	305.403141995588	60
27	56	13.309532659544	1
27	88	16.939165043821	2
27	136	22.946251937054	3
27	165	26.958733105814	4
27	197	32.344066224903	5
27	4054	188.403141995588	6
27	5357	289.403141995588	7
27	5373	291.403141995588	8
27	5402	294.403141995588	9
27	5405	295.403141995588	10
27	5421	297.403141995588	11
27	5437	299.403141995588	12
27	5440	300.403141995588	13
27	5456	302.403141995588	14
27	5485	305.403141995588	15
32	57	13.309532659544	20
32	89	16.939165043821	20
32	137	22.946251937054	20
32	166	26.958733105814	20
32	198	32.344066224903	20
32	4055	188.403141995588	44
32	5358	289.403141995588	44
32	5374	291.403141995588	44
32	5403	294.403141995588	44
32	5406	295.403141995588	44
32	5422	297.403141995588	44
32	5438	299.403141995588	44
32	5441	300.403141995588	44
32	5457	302.403141995588	44
32	5486	305.403141995588	52
33	57	13.309532659544	1.000395667573
33	89	16.939165043821	1.000395667573
33	137	22.946251937054	1.000395667573
33	166	26.958733105814	1.000395667573
33	198	32.344066224903	1.000395667573
33	4055	188.403141995588	153.03750123682
33	5358	289.403141995588	250.37338135812
33	5374	291.403141995588	246.88991791446
33	5403	294.403141995588	246.45312111229
33	5406	295.403141995588	245.31806841865
33	5422	297.403141995588	243.75467766545
33	5438	299.403141995588	239.77429895809
33	5441	300.403141995588	238.14620534487
33	5457	302.403141995588	234.52347434192
33	5486	305.403141995588	231.45500755721
39	59	14.309532659544	71
39	91	17.939165043821	71
39	107	20.253203244723	71
39	139	23.946251937054	71
39	171	29.180406165024	71
39	425	33.403141995588	71
39	798	34.403141995588	1585
39	1187	35.403141995588	1431
39	1563	36.403141995588	1510
39	1808	37.403141995588	1519
39	1831	38.403141995588	1539
39	1860	39.403141995588	1574
39	1876	40.403141995588	1637
39	1892	41.403141995588	1683
39	1908	42.403141995588	1677
39	1927	43.403141995588	1758
39	1943	44.403141995588	1714
39	1975	45.403141995588	1672
39	1991	46.403141995588	1602
39	2010	47.403141995588	1624
39	2039	48.403141995588	1599
39	2055	49.403141995588	1582
39	2084	50.403141995588	1615
39	2100	51.403141995588	1621
39	2119	52.403141995588	1606
39	2135	53.403141995588	1593
39	2164	54.403141995588	1589
39	2180	55.403141995588	1573
39	2196	56.403141995588	1548
39	2212	57.403141995588	1476
39	2231	58.403141995588	1454
39	2247	59.403141995588	1439
39	2276	60.403141995588	1370
39	2292	61.403141995588	1354
39	2321	62.403141995588	1362
39	2340	63.403141995588	1360
39	2356	64.403141995588	1388
39	2372	65.403141995588	1406
39	2388	66.403141995588	1384
39	2404	67.403141995588	1423
39	2433	68.403141995588	1446
39	2452	69.403141995588	1509
39	2468	70.403141995588	1595
39	2484	71.403141995588	1582
39	2503	72.403141995588	1562
39	2519	73.403141995588	1548
39	2547	74.403141995588	1561
39	2560	75.403141995588	1649
39	2573	76.403141995588	1627
39	2586	77.403141995588	1620
39	2602	78.403141995588	1649
39	2615	79.403141995588	1636
39	2628	80.403141995588	1576
39	2641	81.403141995588	1559
39	2654	82.403141995588	1554
39	2670	83.403141995588	1559
39	2683	84.403141995588	1589
39	2696	85.403141995588	1578
39	2709	86.403141995588	1653
39	2725	87.403141995588	1682
39	2738	88.403141995588	1546
39	2751	89.403141995588	1512
39	2764	90.403141995588	1515
39	2780	91.403141995588	1559
39	2793	92.403141995588	1516
39	2806	93.403141995588	1457
39	2819	94.403141995588	1507
39	2832	95.403141995588	1579
39	2845	96.403141995588	1614
39	2864	97.403141995588	1598
39	2879	98.403141995588	1648
39	2892	99.403141995588	1645
39	2905	100.403141995588	1613
39	2923	101.403141995588	1630
39	2936	102.403141995588	1631
39	2949	103.403141995588	1620
39	2962	104.403141995588	1583
39	2975	105.403141995588	1603
39	2988	106.403141995588	1622
39	3001	107.403141995588	1610
39	3014	108.403141995588	1734
39	3027	109.403141995588	1671
39	3040	110.403141995588	1606
39	3053	111.403141995588	1630
39	3066	112.403141995588	1648
39	3079	113.403141995588	1648
39	3092	114.403141995588	1732
39	3105	115.403141995588	1785
39	3118	116.403141995588	1747
39	3131	117.403141995588	1685
39	3144	118.403141995588	1683
39	3157	119.403141995588	1659
39	3170	120.403141995588	1743
39	3183	121.403141995588	1727
39	3196	122.403141995588	1678
39	3209	123.403141995588	1575
39	3222	124.403141995588	1617
39	3235	125.403141995588	1505
39	3248	126.403141995588	1537
39	3261	127.403141995588	1470
39	3274	128.403141995588	1451
39	3287	129.403141995588	1484
39	3300	130.403141995588	1403
39	3313	131.403141995588	1465
39	3326	132.403141995588	1400
39	3339	133.403141995588	1406
39	3352	134.403141995588	1397
39	3365	135.403141995588	1385
39	3378	136.403141995588	1351
39	3391	137.403141995588	1356
39	3404	138.403141995588	1356
39	3417	139.403141995588	1348
39	3430	140.403141995588	1395
39	3443	141.403141995588	1424
39	3456	142.403141995588	1425
39	3469	143.403141995588	1460
39	3482	144.403141995588	1490
39	3495	145.403141995588	1496
39	3508	146.403141995588	1509
39	3521	147.403141995588	1530
39	3534	148.403141995588	1525
39	3547	149.403141995588	1519
39	3560	150.403141995588	1477
39	3573	151.403141995588	1464
39	3586	152.403141995588	1478
39	3599	153.403141995588	1462
39	3612	154.403141995588	1499
39	3625	155.403141995588	1490
39	3638	156.403141995588	1460
39	3651	157.403141995588	1461
39	3664	158.403141995588	1504
39	3677	159.403141995588	1483
39	3690	160.403141995588	1488
39	3703	161.403141995588	1457
39	3716	162.403141995588	1451
39	3729	163.403141995588	1406
39	3742	164.403141995588	1389
39	3755	165.403141995588	1375
39	3768	166.403141995588	1333
39	3781	167.403141995588	1295
39	3794	168.403141995588	1274
39	3807	169.403141995588	1218
39	3820	170.403141995588	1226
39	3833	171.403141995588	1211
39	3846	172.403141995588	1198
39	3859	173.403141995588	1204
39	3872	174.403141995588	1223
39	3885	175.403141995588	1256
39	3898	176.403141995588	1275
39	3911	177.403141995588	1314
39	3924	178.403141995588	1364
39	3937	179.403141995588	1391
39	3950	180.403141995588	1530
39	3963	181.403141995588	1616
39	3976	182.403141995588	1614
39	3989	183.403141995588	1647
39	4002	184.403141995588	1585
39	4015	185.403141995588	1562
39	4028	186.403141995588	1608
39	4041	187.403141995588	1635
39	4057	189.403141995588	1627
39	4070	190.403141995588	1609
39	4083	191.403141995588	1626
39	4096	192.403141995588	1544
39	4109	193.403141995588	1527
39	4122	194.403141995588	1505
39	4135	195.403141995588	1462
39	4148	196.403141995588	1493
39	4161	197.403141995588	1449
39	4174	198.403141995588	1402
39	4187	199.403141995588	1441
39	4200	200.403141995588	1523
39	4213	201.403141995588	1513
39	4226	202.403141995588	1589
39	4239	203.403141995588	1574
39	4252	204.403141995588	1490
39	4265	205.403141995588	1502
39	4278	206.403141995588	1528
39	4291	207.403141995588	1511
39	4304	208.403141995588	1527
39	4317	209.403141995588	1562
39	4330	210.403141995588	1629
39	4343	211.403141995588	1675
39	4356	212.403141995588	1651
39	4369	213.403141995588	1662
39	4382	214.403141995588	1586
39	4395	215.403141995588	1574
39	4408	216.403141995588	1507
39	4421	217.403141995588	1633
39	4434	218.403141995588	1643
39	4447	219.403141995588	1626
39	4460	220.403141995588	1467
39	4473	221.403141995588	1423
39	4486	222.403141995588	1375
39	4499	223.403141995588	1401
39	4512	224.403141995588	1380
39	4525	225.403141995588	1389
39	4538	226.403141995588	1341
39	4551	227.403141995588	1337
39	4564	228.403141995588	1312
39	4577	229.403141995588	1311
39	4590	230.403141995588	1317
39	4603	231.403141995588	1297
39	4616	232.403141995588	1258
39	4629	233.403141995588	1216
39	4642	234.403141995588	1239
39	4655	235.403141995588	1202
39	4668	236.403141995588	1310
39	4681	237.403141995588	1358
39	4694	238.403141995588	1313
39	4707	239.403141995588	1288
39	4720	240.403141995588	1202
39	4733	241.403141995588	1223
39	4746	242.403141995588	1216
39	4759	243.403141995588	1228
39	4772	244.403141995588	1254
39	4785	245.403141995588	1288
39	4798	246.403141995588	1289
39	4811	247.403141995588	1335
39	4824	248.403141995588	1326
39	4837	249.403141995588	1369
39	4850	250.403141995588	1365
39	4863	251.403141995588	1317
39	4876	252.403141995588	1309
39	4889	253.403141995588	1293
39	4902	254.403141995588	1318
39	4915	255.403141995588	1346
39	4928	256.403141995588	1384
39	4941	257.403141995588	1378
39	4954	258.403141995588	1407
39	4967	259.403141995588	1372
39	4980	260.403141995588	1355
39	4993	261.403141995588	1348
39	5006	262.403141995588	1374
39	5019	263.403141995588	1390
39	5032	264.403141995588	1384
39	5045	265.403141995588	1398
39	5058	266.403141995588	1370
39	5071	267.403141995588	1367
39	5084	268.403141995588	1426
39	5097	269.403141995588	1463
39	5110	270.403141995588	1545
39	5123	271.403141995588	1672
39	5136	272.403141995588	1677
39	5149	273.403141995588	1480
39	5162	274.403141995588	91
39	5175	275.403141995588	1529
39	5188	276.403141995588	1512
39	5201	277.403141995588	1577
39	5214	278.403141995588	1689
39	5227	279.403141995588	1534
39	5240	280.403141995588	1374
39	5253	281.403141995588	1366
39	5266	282.403141995588	1332
39	5279	283.403141995588	1345
39	5292	284.403141995588	1300
39	5305	285.403141995588	1349
39	5318	286.403141995588	1396
39	5331	287.403141995588	1483
39	5344	288.403141995588	1540
39	5360	290.403141995588	91
39	5376	292.403141995588	91
39	5389	293.403141995588	71
39	5408	296.403141995588	71
39	5424	298.403141995588	71
39	5443	301.403141995588	71
39	5459	303.403141995588	71
39	5472	304.403141995588	71
39	5488	306.403141995588	71
39	5501	307.403141995588	71
39	5514	308.403141995588	71
39	5527	309.403141995588	71
39	5540	310.403141995588	71
39	5553	311.403141995588	79
41	59	14.309532659544	0
41	91	17.939165043821	0
41	107	20.253203244723	0
41	139	23.946251937054	0
41	171	29.180406165024	0
41	425	33.403141995588	0
41	798	34.403141995588	0
41	1187	35.403141995588	0
41	1563	36.403141995588	0
41	1808	37.403141995588	0
41	1831	38.403141995588	0
41	1860	39.403141995588	0
41	1876	40.403141995588	0
41	1892	41.403141995588	0
41	1908	42.403141995588	0
41	1927	43.403141995588	0
41	1943	44.403141995588	0
41	1975	45.403141995588	0
41	1991	46.403141995588	0
41	2010	47.403141995588	0
41	2039	48.403141995588	0
41	2055	49.403141995588	0
41	2084	50.403141995588	0
41	2100	51.403141995588	0
41	2119	52.403141995588	0
41	2135	53.403141995588	0
41	2164	54.403141995588	0
41	2180	55.403141995588	0
41	2196	56.403141995588	0
41	2212	57.403141995588	0
41	2231	58.403141995588	0
41	2247	59.403141995588	0
41	2276	60.403141995588	0
41	2292	61.403141995588	0
41	2321	62.403141995588	0
41	2340	63.403141995588	0
41	2356	64.403141995588	0
41	2372	65.403141995588	0
41	2388	66.403141995588	0
41	2404	67.403141995588	0
41	2433	68.403141995588	0
41	2452	69.403141995588	0
41	2468	70.403141995588	0
41	2484	71.403141995588	0
41	2503	72.403141995588	0
41	2519	73.403141995588	0
41	2547	74.403141995588	0
41	2560	75.403141995588	0
41	2573	76.403141995588	0
41	2586	77.403141995588	0
41	2602	78.403141995588	0
41	2615	79.403141995588	0
41	2628	80.403141995588	0
41	2641	81.403141995588	0
41	2654	82.403141995588	0
41	2670	83.403141995588	0
41	2683	84.403141995588	0
41	2696	85.403141995588	0
41	2709	86.403141995588	0
41	2725	87.403141995588	0
41	2738	88.403141995588	0
41	2751	89.403141995588	0
41	2764	90.403141995588	0
41	2780	91.403141995588	0
41	2793	92.403141995588	0
41	2806	93.403141995588	0
41	2819	94.403141995588	0
41	2832	95.403141995588	0
41	2845	96.403141995588	0
41	2864	97.403141995588	0
41	2879	98.403141995588	0
41	2892	99.403141995588	0
41	2905	100.403141995588	0
41	2923	101.403141995588	0
41	2936	102.403141995588	0
41	2949	103.403141995588	0
41	2962	104.403141995588	0
41	2975	105.403141995588	0
41	2988	106.403141995588	0
41	3001	107.403141995588	0
41	3014	108.403141995588	0
41	3027	109.403141995588	0
41	3040	110.403141995588	0
41	3053	111.403141995588	0
41	3066	112.403141995588	0
41	3079	113.403141995588	0
41	3092	114.403141995588	0
41	3105	115.403141995588	0
41	3118	116.403141995588	0
41	3131	117.403141995588	0
41	3144	118.403141995588	0
41	3157	119.403141995588	0
41	3170	120.403141995588	0
41	3183	121.403141995588	0
41	3196	122.403141995588	0
41	3209	123.403141995588	0
41	3222	124.403141995588	0
41	3235	125.403141995588	0
41	3248	126.403141995588	0
41	3261	127.403141995588	0
41	3274	128.403141995588	0
41	3287	129.403141995588	0
41	3300	130.403141995588	0
41	3313	131.403141995588	0
41	3326	132.403141995588	0
41	3339	133.403141995588	0
41	3352	134.403141995588	0
41	3365	135.403141995588	0
41	3378	136.403141995588	0
41	3391	137.403141995588	0
41	3404	138.403141995588	0
41	3417	139.403141995588	0
41	3430	140.403141995588	0
41	3443	141.403141995588	0
41	3456	142.403141995588	0
41	3469	143.403141995588	0
41	3482	144.403141995588	0
41	3495	145.403141995588	0
41	3508	146.403141995588	0
41	3521	147.403141995588	0
41	3534	148.403141995588	0
41	3547	149.403141995588	0
41	3560	150.403141995588	0
41	3573	151.403141995588	0
41	3586	152.403141995588	0
41	3599	153.403141995588	0
41	3612	154.403141995588	0
41	3625	155.403141995588	0
41	3638	156.403141995588	0
41	3651	157.403141995588	0
41	3664	158.403141995588	0
41	3677	159.403141995588	0
41	3690	160.403141995588	0
41	3703	161.403141995588	0
41	3716	162.403141995588	0
41	3729	163.403141995588	0
41	3742	164.403141995588	0
41	3755	165.403141995588	0
41	3768	166.403141995588	0
41	3781	167.403141995588	0
41	3794	168.403141995588	0
41	3807	169.403141995588	0
41	3820	170.403141995588	0
41	3833	171.403141995588	0
41	3846	172.403141995588	0
41	3859	173.403141995588	0
41	3872	174.403141995588	0
41	3885	175.403141995588	0
41	3898	176.403141995588	0
41	3911	177.403141995588	0
41	3924	178.403141995588	0
41	3937	179.403141995588	0
41	3950	180.403141995588	0
41	3963	181.403141995588	0
41	3976	182.403141995588	0
41	3989	183.403141995588	0
41	4002	184.403141995588	0
41	4015	185.403141995588	0
41	4028	186.403141995588	0
41	4041	187.403141995588	0
41	4057	189.403141995588	0
41	4070	190.403141995588	0
41	4083	191.403141995588	0
41	4096	192.403141995588	0
41	4109	193.403141995588	0
41	4122	194.403141995588	0
41	4135	195.403141995588	0
41	4148	196.403141995588	0
41	4161	197.403141995588	0
41	4174	198.403141995588	0
41	4187	199.403141995588	0
41	4200	200.403141995588	0
41	4213	201.403141995588	0
41	4226	202.403141995588	0
41	4239	203.403141995588	0
41	4252	204.403141995588	0
41	4265	205.403141995588	0
41	4278	206.403141995588	0
41	4291	207.403141995588	0
41	4304	208.403141995588	0
41	4317	209.403141995588	0
41	4330	210.403141995588	0
41	4343	211.403141995588	0
41	4356	212.403141995588	0
41	4369	213.403141995588	0
41	4382	214.403141995588	0
41	4395	215.403141995588	0
41	4408	216.403141995588	0
41	4421	217.403141995588	0
41	4434	218.403141995588	0
41	4447	219.403141995588	0
41	4460	220.403141995588	0
41	4473	221.403141995588	0
41	4486	222.403141995588	0
41	4499	223.403141995588	0
41	4512	224.403141995588	0
41	4525	225.403141995588	0
41	4538	226.403141995588	0
41	4551	227.403141995588	0
41	4564	228.403141995588	0
41	4577	229.403141995588	0
41	4590	230.403141995588	0
41	4603	231.403141995588	0
41	4616	232.403141995588	0
41	4629	233.403141995588	0
41	4642	234.403141995588	0
41	4655	235.403141995588	0
41	4668	236.403141995588	0
41	4681	237.403141995588	0
41	4694	238.403141995588	0
41	4707	239.403141995588	0
41	4720	240.403141995588	0
41	4733	241.403141995588	0
41	4746	242.403141995588	0
41	4759	243.403141995588	0
41	4772	244.403141995588	0
41	4785	245.403141995588	0
41	4798	246.403141995588	0
41	4811	247.403141995588	0
41	4824	248.403141995588	0
41	4837	249.403141995588	0
41	4850	250.403141995588	0
41	4863	251.403141995588	0
41	4876	252.403141995588	0
41	4889	253.403141995588	0
41	4902	254.403141995588	0
41	4915	255.403141995588	0
41	4928	256.403141995588	0
41	4941	257.403141995588	0
41	4954	258.403141995588	0
41	4967	259.403141995588	0
41	4980	260.403141995588	0
41	4993	261.403141995588	0
41	5006	262.403141995588	0
41	5019	263.403141995588	0
41	5032	264.403141995588	0
41	5045	265.403141995588	0
41	5058	266.403141995588	0
41	5071	267.403141995588	0
41	5084	268.403141995588	0
41	5097	269.403141995588	0
41	5110	270.403141995588	0
41	5123	271.403141995588	0
41	5136	272.403141995588	0
41	5149	273.403141995588	0
41	5162	274.403141995588	0
41	5175	275.403141995588	0
41	5188	276.403141995588	0
41	5201	277.403141995588	0
41	5214	278.403141995588	0
41	5227	279.403141995588	0
41	5240	280.403141995588	0
41	5253	281.403141995588	0
41	5266	282.403141995588	0
41	5279	283.403141995588	0
41	5292	284.403141995588	0
41	5305	285.403141995588	0
41	5318	286.403141995588	0
41	5331	287.403141995588	0
41	5344	288.403141995588	0
41	5360	290.403141995588	0
41	5376	292.403141995588	0
41	5389	293.403141995588	0
41	5408	296.403141995588	0
41	5424	298.403141995588	0
41	5443	301.403141995588	0
41	5459	303.403141995588	0
41	5472	304.403141995588	0
41	5488	306.403141995588	0
41	5501	307.403141995588	0
41	5514	308.403141995588	0
41	5527	309.403141995588	0
41	5540	310.403141995588	0
41	5553	311.403141995588	0
42	0	0	0
43	0	0	0
43	60	14.309532659544	1
43	61	14.309538899544	0
43	92	17.939165043821	1
43	93	17.939171283821	0
43	108	20.253203244723	1
43	109	20.253209484723	0
43	140	23.946251937054	1
43	141	23.946258177054	0
43	172	29.180406165024	1
43	173	29.180412405024	0
43	426	33.403141995588	1
43	427	33.403148235588	0
43	799	34.403141995588	1
43	800	34.403269355588	0
43	1188	35.403141995588	1
43	1189	35.403257035588	0
43	1564	36.403141995588	1
43	1565	36.403263355588	0
43	1809	37.403141995588	1
43	1810	37.403264075588	0
43	1832	38.403141995588	1
43	1833	38.403265675588	0
43	1861	39.403141995588	1
43	1862	39.403268475588	0
43	1877	40.403141995588	1
43	1878	40.403273515588	0
43	1893	41.403141995588	1
43	1894	41.403277195588	0
43	1909	42.403141995588	1
43	1910	42.403276715588	0
43	1928	43.403141995588	1
43	1929	43.403283195588	0
43	1944	44.403141995588	1
43	1945	44.403279675588	0
43	1976	45.403141995588	1
43	1977	45.403276315588	0
43	1992	46.403141995588	1
43	1993	46.403270715588	0
43	2011	47.403141995588	1
43	2012	47.403272475588	0
43	2040	48.403141995588	1
43	2041	48.403270475588	0
43	2056	49.403141995588	1
43	2057	49.403269115588	0
43	2085	50.403141995588	1
43	2086	50.403271755588	0
43	2101	51.403141995588	1
43	2102	51.403272235588	0
43	2120	52.403141995588	1
43	2121	52.403271035588	0
43	2136	53.403141995588	1
43	2137	53.403269995588	0
43	2165	54.403141995588	1
43	2166	54.403269675588	0
43	2181	55.403141995588	1
43	2182	55.403268395588	0
43	2197	56.403141995588	1
43	2198	56.403266395588	0
43	2213	57.403141995588	1
43	2214	57.403260635588	0
43	2232	58.403141995588	1
43	2233	58.403258875588	0
43	2248	59.403141995588	1
43	2249	59.403257675588	0
43	2277	60.403141995588	1
43	2278	60.403252155588	0
43	2293	61.403141995588	1
43	2294	61.403250875588	0
43	2322	62.403141995588	1
43	2323	62.403251515588	0
43	2341	63.403141995588	1
43	2342	63.403251355588	0
43	2357	64.403141995588	1
43	2358	64.403253595588	0
43	2373	65.403141995588	1
43	2374	65.403255035588	0
43	2389	66.403141995588	1
43	2390	66.403253275588	0
43	2405	67.403141995588	1
43	2406	67.403256395588	0
43	2434	68.403141995588	1
43	2435	68.403258235588	0
43	2453	69.403141995588	1
43	2454	69.403263275588	0
43	2469	70.403141995588	1
43	2470	70.403270155588	0
43	2485	71.403141995588	1
43	2486	71.403269115588	0
43	2504	72.403141995588	1
43	2505	72.403267515588	0
43	2520	73.403141995588	1
43	2521	73.403266395588	0
43	2548	74.403141995588	1
43	2549	74.403267435588	0
43	2561	75.403141995588	1
43	2562	75.403274475588	0
43	2574	76.403141995588	1
43	2575	76.403272715588	0
43	2587	77.403141995588	1
43	2588	77.403272155588	0
43	2603	78.403141995588	1
43	2604	78.403274475588	0
43	2616	79.403141995588	1
43	2617	79.403273435588	0
43	2629	80.403141995588	1
43	2630	80.403268635588	0
43	2642	81.403141995588	1
43	2643	81.403267275588	0
43	2655	82.403141995588	1
43	2656	82.403266875588	0
43	2671	83.403141995588	1
43	2672	83.403267275588	0
43	2684	84.403141995588	1
43	2685	84.403269675588	0
43	2697	85.403141995588	1
43	2698	85.403268795588	0
43	2710	86.403141995588	1
43	2711	86.403274795588	0
43	2726	87.403141995588	1
43	2727	87.403277115588	0
43	2739	88.403141995588	1
43	2740	88.403266235588	0
43	2752	89.403141995588	1
43	2753	89.403263515588	0
43	2765	90.403141995588	1
43	2766	90.403263755588	0
43	2781	91.403141995588	1
43	2782	91.403267275588	0
43	2794	92.403141995588	1
43	2795	92.403263835588	0
43	2807	93.403141995588	1
43	2808	93.403259115588	0
43	2820	94.403141995588	1
43	2821	94.403263115588	0
43	2833	95.403141995588	1
43	2834	95.403268875588	0
43	2846	96.403141995588	1
43	2847	96.403271675588	0
43	2865	97.403141995588	1
43	2866	97.403270395588	0
43	2880	98.403141995588	1
43	2881	98.403274395588	0
43	2893	99.403141995588	1
43	2894	99.403274155588	0
43	2906	100.403141995588	1
43	2907	100.403271595588	0
43	2924	101.403141995588	1
43	2925	101.403272955588	0
43	2937	102.403141995588	1
43	2938	102.403273035588	0
43	2950	103.403141995588	1
43	2951	103.403272155588	0
43	2963	104.403141995588	1
43	2964	104.403269195588	0
43	2976	105.403141995588	1
43	2977	105.403270795588	0
43	2989	106.403141995588	1
43	2990	106.403272315588	0
43	3002	107.403141995588	1
43	3003	107.403271355588	0
43	3015	108.403141995588	1
43	3016	108.403281275588	0
43	3028	109.403141995588	1
43	3029	109.403276235588	0
43	3041	110.403141995588	1
43	3042	110.403271035588	0
43	3054	111.403141995588	1
43	3055	111.403272955588	0
43	3067	112.403141995588	1
43	3068	112.403274395588	0
43	3080	113.403141995588	1
43	3081	113.403274395588	0
43	3093	114.403141995588	1
43	3094	114.403281115588	0
43	3106	115.403141995588	1
43	3107	115.403285355588	0
43	3119	116.403141995588	1
43	3120	116.403282315588	0
43	3132	117.403141995588	1
43	3133	117.403277355588	0
43	3145	118.403141995588	1
43	3146	118.403277195588	0
43	3158	119.403141995588	1
43	3159	119.403275275588	0
43	3171	120.403141995588	1
43	3172	120.403281995588	0
43	3184	121.403141995588	1
43	3185	121.403280715588	0
43	3197	122.403141995588	1
43	3198	122.403276795588	0
43	3210	123.403141995588	1
43	3211	123.403268555588	0
43	3223	124.403141995588	1
43	3224	124.403271915588	0
43	3236	125.403141995588	1
43	3237	125.403262955588	0
43	3249	126.403141995588	1
43	3250	126.403265515588	0
43	3262	127.403141995588	1
43	3263	127.403260155588	0
43	3275	128.403141995588	1
43	3276	128.403258635588	0
43	3288	129.403141995588	1
43	3289	129.403261275588	0
43	3301	130.403141995588	1
43	3302	130.403254795588	0
43	3314	131.403141995588	1
43	3315	131.403259755588	0
43	3327	132.403141995588	1
43	3328	132.403254555588	0
43	3340	133.403141995588	1
43	3341	133.403255035588	0
43	3353	134.403141995588	1
43	3354	134.403254315588	0
43	3366	135.403141995588	1
43	3367	135.403253355588	0
43	3379	136.403141995588	1
43	3380	136.403250635588	0
43	3392	137.403141995588	1
43	3393	137.403251035588	0
43	3405	138.403141995588	1
43	3406	138.403251035588	0
43	3418	139.403141995588	1
43	3419	139.403250395588	0
43	3431	140.403141995588	1
43	3432	140.403254155588	0
43	3444	141.403141995588	1
43	3445	141.403256475588	0
43	3457	142.403141995588	1
43	3458	142.403256555588	0
43	3470	143.403141995588	1
43	3471	143.403259355588	0
43	3483	144.403141995588	1
43	3484	144.403261755588	0
43	3496	145.403141995588	1
43	3497	145.403262235588	0
43	3509	146.403141995588	1
43	3510	146.403263275588	0
43	3522	147.403141995588	1
43	3523	147.403264955588	0
43	3535	148.403141995588	1
43	3536	148.403264555588	0
43	3548	149.403141995588	1
43	3549	149.403264075588	0
43	3561	150.403141995588	1
43	3562	150.403260715588	0
43	3574	151.403141995588	1
43	3575	151.403259675588	0
43	3587	152.403141995588	1
43	3588	152.403260795588	0
43	3600	153.403141995588	1
43	3601	153.403259515588	0
43	3613	154.403141995588	1
43	3614	154.403262475588	0
43	3626	155.403141995588	1
43	3627	155.403261755588	0
43	3639	156.403141995588	1
43	3640	156.403259355588	0
43	3652	157.403141995588	1
43	3653	157.403259435588	0
43	3665	158.403141995588	1
43	3666	158.403262875588	0
43	3678	159.403141995588	1
43	3679	159.403261195588	0
43	3691	160.403141995588	1
43	3692	160.403261595588	0
43	3704	161.403141995588	1
43	3705	161.403259115588	0
43	3717	162.403141995588	1
43	3718	162.403258635588	0
43	3730	163.403141995588	1
43	3731	163.403255035588	0
43	3743	164.403141995588	1
43	3744	164.403253675588	0
43	3756	165.403141995588	1
43	3757	165.403252555588	0
43	3769	166.403141995588	1
43	3770	166.403249195588	0
43	3782	167.403141995588	1
43	3783	167.403246155588	0
43	3795	168.403141995588	1
43	3796	168.403244475588	0
43	3808	169.403141995588	1
43	3809	169.403239995588	0
43	3821	170.403141995588	1
43	3822	170.403240635588	0
43	3834	171.403141995588	1
43	3835	171.403239435588	0
43	3847	172.403141995588	1
43	3848	172.403238395588	0
43	3860	173.403141995588	1
43	3861	173.403238875588	0
43	3873	174.403141995588	1
43	3874	174.403240395588	0
43	3886	175.403141995588	1
43	3887	175.403243035588	0
43	3899	176.403141995588	1
43	3900	176.403244555588	0
43	3912	177.403141995588	1
43	3913	177.403247675588	0
43	3925	178.403141995588	1
43	3926	178.403251675588	0
43	3938	179.403141995588	1
43	3939	179.403253835588	0
43	3951	180.403141995588	1
43	3952	180.403264955588	0
43	3964	181.403141995588	1
43	3965	181.403271835588	0
43	3977	182.403141995588	1
43	3978	182.403271675588	0
43	3990	183.403141995588	1
43	3991	183.403274315588	0
43	4003	184.403141995588	1
43	4004	184.403269355588	0
43	4016	185.403141995588	1
43	4017	185.403267515588	0
43	4029	186.403141995588	1
43	4030	186.403271195588	0
43	4042	187.403141995588	1
43	4043	187.403273355588	0
43	4058	189.403141995588	1
43	4059	189.403272715588	0
43	4071	190.403141995588	1
43	4072	190.403271275588	0
43	4084	191.403141995588	1
43	4085	191.403272635588	0
43	4097	192.403141995588	1
43	4098	192.403266075588	0
[...]
70	4818	247.403454066079	0
70	4830	248.403345986079	1
70	4831	248.403452626079	0
70	4843	249.403349426079	1
70	4844	249.403459506079	0
70	4856	250.403349106079	1
70	4857	250.403458866079	0
70	4869	251.403345266079	1
70	4870	251.403451186079	0
70	4882	252.403344626079	1
70	4883	252.403449906079	0
70	4895	253.403343346079	1
70	4896	253.403447346079	0
70	4908	254.403345346079	1
70	4909	254.403451346079	0
70	4921	255.403347586079	1
70	4922	255.403455826079	0
70	4934	256.403350626079	1
70	4935	256.403461906079	0
70	4947	257.403350146079	1
70	4948	257.403460946079	0
70	4960	258.403352466079	1
70	4961	258.403465586079	0
70	4973	259.403349666079	1
70	4974	259.403459986079	0
70	4986	260.403348306079	1
70	4987	260.403457266079	0
70	4999	261.403347746079	1
70	5000	261.403456146079	0
70	5012	262.403349826079	1
70	5013	262.403460306079	0
70	5025	263.403351106079	1
70	5026	263.403462866079	0
70	5038	264.403350626079	1
70	5039	264.403461906079	0
70	5051	265.403351746079	1
70	5052	265.403464146079	0
70	5064	266.403349506079	1
70	5065	266.403459666079	0
70	5077	267.403349266079	1
70	5078	267.403459186079	0
70	5090	268.403353986079	1
70	5091	268.403468626079	0
70	5103	269.403356946079	1
70	5104	269.403474546079	0
70	5116	270.403363506079	1
70	5117	270.403487666079	0
70	5129	271.403373666079	1
70	5130	271.403507986079	0
70	5142	272.403374066079	1
70	5143	272.403508786079	0
70	5155	273.403358306079	1
70	5156	273.403477266079	0
70	5168	274.403247186079	1
70	5169	274.403255026079	0
70	5181	275.403362226079	1
70	5182	275.403485106079	0
70	5194	276.403360866079	1
70	5195	276.403482386079	0
70	5207	277.403366066079	1
70	5208	277.403492786079	0
70	5220	278.403375026079	1
70	5221	278.403510706079	0
70	5233	279.403362626079	1
70	5234	279.403485906079	0
70	5246	280.403349826079	1
70	5247	280.403460306079	0
70	5259	281.403349186079	1
70	5260	281.403459026079	0
70	5272	282.403346466079	1
70	5273	282.403453586079	0
70	5285	283.403347506079	1
70	5286	283.403455666079	0
70	5298	284.403343906079	1
70	5299	284.403448466079	0
70	5311	285.403347826079	1
70	5312	285.403456306079	0
70	5324	286.403351586079	1
70	5325	286.403463826079	0
70	5337	287.403358546079	1
70	5338	287.403477746079	0
70	5350	288.403363106079	1
70	5351	288.403486866079	0
70	5366	290.403247186079	1
70	5367	290.403255026079	0
70	5382	292.403247186079	1
70	5383	292.403255026079	0
70	5395	293.403245586079	1
70	5396	293.403251826079	0
70	5414	296.403245586079	1
70	5415	296.403251826079	0
70	5430	298.403245586079	1
70	5431	298.403251826079	0
70	5449	301.403245586079	1
70	5450	301.403251826079	0
70	5465	303.403245586079	1
70	5466	303.403251826079	0
70	5478	304.403245586079	1
70	5479	304.403251826079	0
70	5494	306.403245586079	1
70	5495	306.403251826079	0
70	5507	307.403245586079	1
70	5508	307.403251826079	0
70	5520	308.403245586079	1
70	5521	308.403251826079	0
70	5533	309.403245586079	1
70	5534	309.403251826079	0
70	5546	310.403245586079	1
70	5547	310.403251826079	0
70	5559	311.403246226079	1
70	5560	311.403253106079	0
71	65	14.309636250035	78
71	97	17.939268634312	78
71	113	20.253306835214	78
71	145	23.946355527545	78
71	177	29.180509755515	78
71	431	33.403245586079	78
71	804	34.403366706079	1592
71	1193	35.403354386079	1438
71	1569	36.403360706079	1517
71	1814	37.403361426079	1526
71	1837	38.403363026079	1546
71	1866	39.403365826079	1581
71	1882	40.403370866079	1644
71	1898	41.403374546079	1690
71	1914	42.403374066079	1684
71	1933	43.403380546079	1765
71	1949	44.403377026079	1721
71	1981	45.403373666079	1679
71	1997	46.403368066079	1609
71	2016	47.403369826079	1631
71	2045	48.403367826079	1606
71	2061	49.403366466079	1589
71	2090	50.403369106079	1622
71	2106	51.403369586079	1628
71	2125	52.403368386079	1613
71	2141	53.403367346079	1600
71	2170	54.403367026079	1596
71	2186	55.403365746079	1580
71	2202	56.403363746079	1555
71	2218	57.403357986079	1483
71	2237	58.403356226079	1461
71	2253	59.403355026079	1446
71	2282	60.403349506079	1377
71	2298	61.403348226079	1361
71	2327	62.403348866079	1369
71	2346	63.403348706079	1367
71	2362	64.403350946079	1395
71	2378	65.403352386079	1413
71	2394	66.403350626079	1391
71	2410	67.403353746079	1430
71	2439	68.403355586079	1453
71	2458	69.403360626079	1516
71	2474	70.403367506079	1602
71	2490	71.403366466079	1589
71	2509	72.403364866079	1569
71	2525	73.403363746079	1555
71	2553	74.403364786079	1568
71	2566	75.403371826079	1656
71	2579	76.403370066079	1634
71	2592	77.403369506079	1627
71	2608	78.403371826079	1656
71	2621	79.403370786079	1643
71	2634	80.403365986079	1583
71	2647	81.403364626079	1566
71	2660	82.403364226079	1561
71	2676	83.403364626079	1566
71	2689	84.403367026079	1596
71	2702	85.403366146079	1585
71	2715	86.403372146079	1660
71	2731	87.403374466079	1689
71	2744	88.403363586079	1553
71	2757	89.403360866079	1519
71	2770	90.403361106079	1522
71	2786	91.403364626079	1566
71	2799	92.403361186079	1523
71	2812	93.403356466079	1464
71	2825	94.403360466079	1514
71	2838	95.403366226079	1586
71	2851	96.403369026079	1621
71	2870	97.403367746079	1605
71	2885	98.403371746079	1655
71	2898	99.403371506079	1652
71	2911	100.403368946079	1620
71	2929	101.403370306079	1637
71	2942	102.403370386079	1638
71	2955	103.403369506079	1627
71	2968	104.403366546079	1590
71	2981	105.403368146079	1610
71	2994	106.403369666079	1629
71	3007	107.403368706079	1617
71	3020	108.403378626079	1741
71	3033	109.403373586079	1678
71	3046	110.403368386079	1613
71	3059	111.403370306079	1637
71	3072	112.403371746079	1655
71	3085	113.403371746079	1655
71	3098	114.403378466079	1739
71	3111	115.403382706079	1792
71	3124	116.403379666079	1754
71	3137	117.403374706079	1692
71	3150	118.403374546079	1690
71	3163	119.403372626079	1666
71	3176	120.403379346079	1750
71	3189	121.403378066079	1734
71	3202	122.403374146079	1685
71	3215	123.403365906079	1582
71	3228	124.403369266079	1624
71	3241	125.403360306079	1512
71	3254	126.403362866079	1544
71	3267	127.403357506079	1477
71	3280	128.403355986079	1458
71	3293	129.403358626079	1491
71	3306	130.403352146079	1410
71	3319	131.403357106079	1472
71	3332	132.403351906079	1407
71	3345	133.403352386079	1413
71	3358	134.403351666079	1404
71	3371	135.403350706079	1392
71	3384	136.403347986079	1358
71	3397	137.403348386079	1363
71	3410	138.403348386079	1363
71	3423	139.403347746079	1355
71	3436	140.403351506079	1402
71	3449	141.403353826079	1431
71	3462	142.403353906079	1432
71	3475	143.403356706079	1467
71	3488	144.403359106079	1497
71	3501	145.403359586079	1503
71	3514	146.403360626079	1516
71	3527	147.403362306079	1537
71	3540	148.403361906079	1532
71	3553	149.403361426079	1526
71	3566	150.403358066079	1484
71	3579	151.403357026079	1471
71	3592	152.403358146079	1485
71	3605	153.403356866079	1469
71	3618	154.403359826079	1506
71	3631	155.403359106079	1497
71	3644	156.403356706079	1467
71	3657	157.403356786079	1468
71	3670	158.403360226079	1511
71	3683	159.403358546079	1490
71	3696	160.403358946079	1495
71	3709	161.403356466079	1464
71	3722	162.403355986079	1458
71	3735	163.403352386079	1413
71	3748	164.403351026079	1396
71	3761	165.403349906079	1382
71	3774	166.403346546079	1340
71	3787	167.403343506079	1302
71	3800	168.403341826079	1281
71	3813	169.403337346079	1225
71	3826	170.403337986079	1233
71	3839	171.403336786079	1218
71	3852	172.403335746079	1205
71	3865	173.403336226079	1211
71	3878	174.403337746079	1230
71	3891	175.403340386079	1263
71	3904	176.403341906079	1282
71	3917	177.403345026079	1321
71	3930	178.403349026079	1371
71	3943	179.403351186079	1398
71	3956	180.403362306079	1537
71	3969	181.403369186079	1623
71	3982	182.403369026079	1621
71	3995	183.403371666079	1654
71	4008	184.403366706079	1592
71	4021	185.403364866079	1569
71	4034	186.403368546079	1615
71	4047	187.403370706079	1642
71	4063	189.403370066079	1634
71	4076	190.403368626079	1616
71	4089	191.403369986079	1633
71	4102	192.403363426079	1551
71	4115	193.403362066079	1534
71	4128	194.403360306079	1512
71	4141	195.403356866079	1469
71	4154	196.403359346079	1500
71	4167	197.403355826079	1456
71	4180	198.403352066079	1409
71	4193	199.403355186079	1448
71	4206	200.403361746079	1530
71	4219	201.403360946079	1520
71	4232	202.403367026079	1596
71	4245	203.403365826079	1581
71	4258	204.403359106079	1497
71	4271	205.403360066079	1509
71	4284	206.403362146079	1535
71	4297	207.403360786079	1518
71	4310	208.403362066079	1534
71	4323	209.403364866079	1569
71	4336	210.403370226079	1636
71	4349	211.403373906079	1682
71	4362	212.403371986079	1658
71	4375	213.403372866079	1669
71	4388	214.403366786079	1593
71	4401	215.403365826079	1581
71	4414	216.403360466079	1514
71	4427	217.403370546079	1640
71	4440	218.403371346079	1650
71	4453	219.403369986079	1633
71	4466	220.403357266079	1474
71	4479	221.403353746079	1430
71	4492	222.403349906079	1382
71	4505	223.403351986079	1408
71	4518	224.403350306079	1387
71	4531	225.403351026079	1396
71	4544	226.403347186079	1348
71	4557	227.403346866079	1344
71	4570	228.403344866079	1319
71	4583	229.403344786079	1318
71	4596	230.403345266079	1324
71	4609	231.403343666079	1304
71	4622	232.403340546079	1265
71	4635	233.403337186079	1223
71	4648	234.403339026079	1246
71	4661	235.403336066079	1209
71	4674	236.403344706079	1317
71	4687	237.403348546079	1365
71	4700	238.403344946079	1320
71	4713	239.403342946079	1295
71	4726	240.403336066079	1209
71	4739	241.403337746079	1230
71	4752	242.403337186079	1223
71	4765	243.403338146079	1235
71	4778	244.403340226079	1261
71	4791	245.403342946079	1295
71	4804	246.403343026079	1296
71	4817	247.403346706079	1342
71	4830	248.403345986079	1333
71	4843	249.403349426079	1376
71	4856	250.403349106079	1372
71	4869	251.403345266079	1324
71	4882	252.403344626079	1316
71	4895	253.403343346079	1300
71	4908	254.403345346079	1325
71	4921	255.403347586079	1353
71	4934	256.403350626079	1391
71	4947	257.403350146079	1385
71	4960	258.403352466079	1414
71	4973	259.403349666079	1379
71	4986	260.403348306079	1362
71	4999	261.403347746079	1355
71	5012	262.403349826079	1381
71	5025	263.403351106079	1397
71	5038	264.403350626079	1391
71	5051	265.403351746079	1405
71	5064	266.403349506079	1377
71	5077	267.403349266079	1374
71	5090	268.403353986079	1433
71	5103	269.403356946079	1470
71	5116	270.403363506079	1552
71	5129	271.403373666079	1679
71	5142	272.403374066079	1684
71	5155	273.403358306079	1487
71	5168	274.403247186079	98
71	5181	275.403362226079	1536
71	5194	276.403360866079	1519
71	5207	277.403366066079	1584
71	5220	278.403375026079	1696
71	5233	279.403362626079	1541
71	5246	280.403349826079	1381
71	5259	281.403349186079	1373
71	5272	282.403346466079	1339
71	5285	283.403347506079	1352
71	5298	284.403343906079	1307
71	5311	285.403347826079	1356
71	5324	286.403351586079	1403
71	5337	287.403358546079	1490
71	5350	288.403363106079	1547
71	5366	290.403247186079	98
71	5382	292.403247186079	98
71	5395	293.403245586079	78
71	5414	296.403245586079	78
71	5430	298.403245586079	78
71	5449	301.403245586079	78
71	5465	303.403245586079	78
71	5478	304.403245586079	78
71	5494	306.403245586079	78
71	5507	307.403245586079	78
71	5520	308.403245586079	78
71	5533	309.403245586079	78
71	5546	310.403245586079	78
71	5559	311.403246226079	86
72	35	12.309334020505	55
72	77	15.938966404782	55
72	125	21.946053298015	55
72	157	25.958534466775	55
72	189	31.343867585864	55
72	1167	35.365839707305	79
72	1852	39.029959585998	79
72	1964	44.51342302966	79
72	2031	47.950219831835	79
72	2076	50.08527252547	79
72	2156	53.648663278673	79
72	2268	59.629041986028	79
72	2313	62.257135599249	79
72	2425	67.879866602206	79
72	2539	73.948334026915	87
75	65	14.309636250035	71
75	97	17.939268634312	71
75	113	20.253306835214	71
75	145	23.946355527545	71
75	177	29.180509755515	71
75	431	33.403245586079	71
75	804	34.403366706079	1585
75	1193	35.403354386079	1431
75	1569	36.403360706079	1510
75	1814	37.403361426079	1519
75	1837	38.403363026079	1539
75	1866	39.403365826079	1574
75	1882	40.403370866079	1637
75	1898	41.403374546079	1683
75	1914	42.403374066079	1677
75	1933	43.403380546079	1758
75	1949	44.403377026079	1714
75	1981	45.403373666079	1672
75	1997	46.403368066079	1602
75	2016	47.403369826079	1624
75	2045	48.403367826079	1599
75	2061	49.403366466079	1582
75	2090	50.403369106079	1615
75	2106	51.403369586079	1621
75	2125	52.403368386079	1606
75	2141	53.403367346079	1593
75	2170	54.403367026079	1589
75	2186	55.403365746079	1573
75	2202	56.403363746079	1548
75	2218	57.403357986079	1476
75	2237	58.403356226079	1454
75	2253	59.403355026079	1439
75	2282	60.403349506079	1370
75	2298	61.403348226079	1354
75	2327	62.403348866079	1362
75	2346	63.403348706079	1360
75	2362	64.403350946079	1388
75	2378	65.403352386079	1406
75	2394	66.403350626079	1384
75	2410	67.403353746079	1423
75	2439	68.403355586079	1446
75	2458	69.403360626079	1509
75	2474	70.403367506079	1595
75	2490	71.403366466079	1582
75	2509	72.403364866079	1562
75	2525	73.403363746079	1548
75	2553	74.403364786079	1561
75	2566	75.403371826079	1649
75	2579	76.403370066079	1627
75	2592	77.403369506079	1620
75	2608	78.403371826079	1649
75	2621	79.403370786079	1636
75	2634	80.403365986079	1576
75	2647	81.403364626079	1559
75	2660	82.403364226079	1554
75	2676	83.403364626079	1559
75	2689	84.403367026079	1589
75	2702	85.403366146079	1578
75	2715	86.403372146079	1653
75	2731	87.403374466079	1682
75	2744	88.403363586079	1546
75	2757	89.403360866079	1512
75	2770	90.403361106079	1515
75	2786	91.403364626079	1559
75	2799	92.403361186079	1516
75	2812	93.403356466079	1457
75	2825	94.403360466079	1507
75	2838	95.403366226079	1579
75	2851	96.403369026079	1614
75	2870	97.403367746079	1598
75	2885	98.403371746079	1648
75	2898	99.403371506079	1645
75	2911	100.403368946079	1613
75	2929	101.403370306079	1630
75	2942	102.403370386079	1631
75	2955	103.403369506079	1620
75	2968	104.403366546079	1583
75	2981	105.403368146079	1603
75	2994	106.403369666079	1622
75	3007	107.403368706079	1610
75	3020	108.403378626079	1734
75	3033	109.403373586079	1671
75	3046	110.403368386079	1606
75	3059	111.403370306079	1630
75	3072	112.403371746079	1648
75	3085	113.403371746079	1648
75	3098	114.403378466079	1732
75	3111	115.403382706079	1785
75	3124	116.403379666079	1747
75	3137	117.403374706079	1685
75	3150	118.403374546079	1683
75	3163	119.403372626079	1659
75	3176	120.403379346079	1743
75	3189	121.403378066079	1727
75	3202	122.403374146079	1678
75	3215	123.403365906079	1575
75	3228	124.403369266079	1617
75	3241	125.403360306079	1505
75	3254	126.403362866079	1537
75	3267	127.403357506079	1470
75	3280	128.403355986079	1451
75	3293	129.403358626079	1484
75	3306	130.403352146079	1403
75	3319	131.403357106079	1465
75	3332	132.403351906079	1400
75	3345	133.403352386079	1406
75	3358	134.403351666079	1397
75	3371	135.403350706079	1385
75	3384	136.403347986079	1351
75	3397	137.403348386079	1356
75	3410	138.403348386079	1356
75	3423	139.403347746079	1348
75	3436	140.403351506079	1395
75	3449	141.403353826079	1424
75	3462	142.403353906079	1425
75	3475	143.403356706079	1460
75	3488	144.403359106079	1490
75	3501	145.403359586079	1496
75	3514	146.403360626079	1509
75	3527	147.403362306079	1530
75	3540	148.403361906079	1525
75	3553	149.403361426079	1519
75	3566	150.403358066079	1477
75	3579	151.403357026079	1464
75	3592	152.403358146079	1478
75	3605	153.403356866079	1462
75	3618	154.403359826079	1499
75	3631	155.403359106079	1490
75	3644	156.403356706079	1460
75	3657	157.403356786079	1461
75	3670	158.403360226079	1504
75	3683	159.403358546079	1483
75	3696	160.403358946079	1488
75	3709	161.403356466079	1457
75	3722	162.403355986079	1451
75	3735	163.403352386079	1406
75	3748	164.403351026079	1389
75	3761	165.403349906079	1375
75	3774	166.403346546079	1333
75	3787	167.403343506079	1295
75	3800	168.403341826079	1274
75	3813	169.403337346079	1218
75	3826	170.403337986079	1226
75	3839	171.403336786079	1211
75	3852	172.403335746079	1198
75	3865	173.403336226079	1204
75	3878	174.403337746079	1223
75	3891	175.403340386079	1256
75	3904	176.403341906079	1275
75	3917	177.403345026079	1314
75	3930	178.403349026079	1364
75	3943	179.403351186079	1391
75	3956	180.403362306079	1530
75	3969	181.403369186079	1616
75	3982	182.403369026079	1614
75	3995	183.403371666079	1647
75	4008	184.403366706079	1585
75	4021	185.403364866079	1562
75	4034	186.403368546079	1608
75	4047	187.403370706079	1635
75	4063	189.403370066079	1627
75	4076	190.403368626079	1609
75	4089	191.403369986079	1626
75	4102	192.403363426079	1544
75	4115	193.403362066079	1527
75	4128	194.403360306079	1505
75	4141	195.403356866079	1462
75	4154	196.403359346079	1493
75	4167	197.403355826079	1449
75	4180	198.403352066079	1402
75	4193	199.403355186079	1441
75	4206	200.403361746079	1523
75	4219	201.403360946079	1513
75	4232	202.403367026079	1589
75	4245	203.403365826079	1574
75	4258	204.403359106079	1490
75	4271	205.403360066079	1502
75	4284	206.403362146079	1528
75	4297	207.403360786079	1511
75	4310	208.403362066079	1527
75	4323	209.403364866079	1562
75	4336	210.403370226079	1629
75	4349	211.403373906079	1675
75	4362	212.403371986079	1651
75	4375	213.403372866079	1662
75	4388	214.403366786079	1586
75	4401	215.403365826079	1574
75	4414	216.403360466079	1507
75	4427	217.403370546079	1633
75	4440	218.403371346079	1643
75	4453	219.403369986079	1626
75	4466	220.403357266079	1467
75	4479	221.403353746079	1423
75	4492	222.403349906079	1375
75	4505	223.403351986079	1401
75	4518	224.403350306079	1380
75	4531	225.403351026079	1389
75	4544	226.403347186079	1341
75	4557	227.403346866079	1337
75	4570	228.403344866079	1312
75	4583	229.403344786079	1311
75	4596	230.403345266079	1317
75	4609	231.403343666079	1297
75	4622	232.403340546079	1258
75	4635	233.403337186079	1216
75	4648	234.403339026079	1239
75	4661	235.403336066079	1202
75	4674	236.403344706079	1310
75	4687	237.403348546079	1358
75	4700	238.403344946079	1313
75	4713	239.403342946079	1288
75	4726	240.403336066079	1202
75	4739	241.403337746079	1223
75	4752	242.403337186079	1216
75	4765	243.403338146079	1228
75	4778	244.403340226079	1254
75	4791	245.403342946079	1288
75	4804	246.403343026079	1289
75	4817	247.403346706079	1335
75	4830	248.403345986079	1326
75	4843	249.403349426079	1369
75	4856	250.403349106079	1365
75	4869	251.403345266079	1317
75	4882	252.403344626079	1309
75	4895	253.403343346079	1293
75	4908	254.403345346079	1318
75	4921	255.403347586079	1346
75	4934	256.403350626079	1384
75	4947	257.403350146079	1378
75	4960	258.403352466079	1407
75	4973	259.403349666079	1372
75	4986	260.403348306079	1355
75	4999	261.403347746079	1348
75	5012	262.403349826079	1374
75	5025	263.403351106079	1390
75	5038	264.403350626079	1384
75	5051	265.403351746079	1398
75	5064	266.403349506079	1370
75	5077	267.403349266079	1367
75	5090	268.403353986079	1426
75	5103	269.403356946079	1463
75	5116	270.403363506079	1545
75	5129	271.403373666079	1672
75	5142	272.403374066079	1677
75	5155	273.403358306079	1480
75	5168	274.403247186079	91
75	5181	275.403362226079	1529
75	5194	276.403360866079	1512
75	5207	277.403366066079	1577
75	5220	278.403375026079	1689
75	5233	279.403362626079	1534
75	5246	280.403349826079	1374
75	5259	281.403349186079	1366
75	5272	282.403346466079	1332
75	5285	283.403347506079	1345
75	5298	284.403343906079	1300
75	5311	285.403347826079	1349
75	5324	286.403351586079	1396
75	5337	287.403358546079	1483
75	5350	288.403363106079	1540
75	5366	290.403247186079	91
75	5382	292.403247186079	91
75	5395	293.403245586079	71
75	5414	296.403245586079	71
75	5430	298.403245586079	71
75	5449	301.403245586079	71
75	5465	303.403245586079	71
75	5478	304.403245586079	71
75	5494	306.403245586079	71
75	5507	307.403245586079	71
75	5520	308.403245586079	71
75	5533	309.403245586079	71
75	5546	310.403245586079	71
75	5559	311.403246226079	79
76	35	12.309334020505	48
76	77	15.938966404782	48
76	125	21.946053298015	48
76	157	25.958534466775	48
76	189	31.343867585864	48
76	1167	35.365839707305	72
76	1852	39.029959585998	72
76	1964	44.51342302966	72
76	2031	47.950219831835	72
76	2076	50.08527252547	72
76	2156	53.648663278673	72
76	2268	59.629041986028	72
76	2313	62.257135599249	72
76	2425	67.879866602206	72
76	2539	73.948334026915	80
