version 2
run General-0-20170324-19:52:46-15144
attr configname General
attr datetime 20170324-19:52:46
attr experiment General
attr inifile omnetpp.ini
attr iterationvars ""
attr iterationvars2 $repetition=0
attr measurement ""
attr network CloudGaming
attr processid 15144
attr repetition 0
attr replication #0
attr resultdir results
attr runnumber 0
attr seedset 0
param **.autoOutputFileNames true
param **.client.**.commonName "\"Thin Gaming Client\""
param **.payloadType 32
param **.server.**.commonName "\"Cloud Gaming Server\""
param **.server.fileName "\"./data/game.gdf\""
param **.sessionEnterDelay 10s
param **.sessionLeaveDelay 60s
param **.transmissionStartDelay 20s
param **.transmissionStopDelay 5s

vector 17  CloudGaming.client.ppp[0].queue  queueLength:vector  ETV
attr interpolationmode  sample-hold
attr title  "queue length, vector"
vector 18  CloudGaming.client.ppp[0].ppp  txState:vector  ETV
attr interpolationmode  sample-hold
attr title  "tx state, vector"
vector 42  CloudGaming.server.ppp[0].queue  queueLength:vector  ETV
attr interpolationmode  sample-hold
attr title  "queue length, vector"
vector 43  CloudGaming.server.ppp[0].ppp  txState:vector  ETV
attr interpolationmode  sample-hold
attr title  "tx state, vector"
vector 58  CloudGaming.router1.ppp[0].queue  queueLength:vector  ETV
attr interpolationmode  sample-hold
attr title  "queue length, vector"
vector 59  CloudGaming.router1.ppp[0].ppp  txState:vector  ETV
attr interpolationmode  sample-hold
attr title  "tx state, vector"
vector 69  CloudGaming.router1.ppp[1].queue  queueLength:vector  ETV
attr interpolationmode  sample-hold
attr title  "queue length, vector"
vector 70  CloudGaming.router1.ppp[1].ppp  txState:vector  ETV
attr interpolationmode  sample-hold
attr title  "tx state, vector"
vector 0  CloudGaming.client.udp  sentPk:vector(packetBytes)  ETV
attr interpolationmode  none
attr source  sentPk
attr title  "packets sent, vector(packetBytes)"
vector 14  CloudGaming.client.ppp[0].queue  rcvdPk:vector(packetBytes)  ETV
attr interpolationmode  none
attr title  "received packets, vector(packetBytes)"
vector 16  CloudGaming.client.ppp[0].queue  queueingTime:vector  ETV
attr interpolationmode  none
attr title  "queueing time, vector"
vector 23  CloudGaming.client.ppp[0].ppp  rcvdPkFromHL:vector(packetBytes)  ETV
attr interpolationmode  none
attr source  packetReceivedFromUpper
attr title  "packets received from higher layer, vector(packetBytes)"
vector 19  CloudGaming.client.ppp[0].ppp  txPk:vector(packetBytes)  ETV
attr interpolationmode  none
attr source  packetSentToLower
attr title  "packets transmitted, vector(packetBytes)"
vector 72  CloudGaming.router1.ppp[1].ppp  rxPkOk:vector(packetBytes)  ETV
attr interpolationmode  none
attr source  rxPkOk
attr title  "packets received OK, vector(packetBytes)"
vector 76  CloudGaming.router1.ppp[1].ppp  passedUpPk:vector(packetBytes)  ETV
attr interpolationmode  none
attr source  packetSentToUpper
attr title  "packets passed to higher layer, vector(packetBytes)"
vector 55  CloudGaming.router1.ppp[0].queue  rcvdPk:vector(packetBytes)  ETV
attr interpolationmode  none
attr title  "received packets, vector(packetBytes)"
vector 57  CloudGaming.router1.ppp[0].queue  queueingTime:vector  ETV
attr interpolationmode  none
attr title  "queueing time, vector"
vector 64  CloudGaming.router1.ppp[0].ppp  rcvdPkFromHL:vector(packetBytes)  ETV
attr interpolationmode  none
attr source  packetReceivedFromUpper
attr title  "packets received from higher layer, vector(packetBytes)"
vector 60  CloudGaming.router1.ppp[0].ppp  txPk:vector(packetBytes)  ETV
attr interpolationmode  none
attr source  packetSentToLower
attr title  "packets transmitted, vector(packetBytes)"
vector 45  CloudGaming.server.ppp[0].ppp  rxPkOk:vector(packetBytes)  ETV
attr interpolationmode  none
attr source  rxPkOk
attr title  "packets received OK, vector(packetBytes)"
vector 49  CloudGaming.server.ppp[0].ppp  passedUpPk:vector(packetBytes)  ETV
attr interpolationmode  none
attr source  packetSentToUpper
attr title  "packets passed to higher layer, vector(packetBytes)"
vector 26  CloudGaming.server.udp  rcvdPk:vector(packetBytes)  ETV
attr interpolationmode  none
attr source  rcvdPk
attr title  "packets received, vector(packetBytes)"
vector 27  CloudGaming.server.udp  passedUpPk:vector(count)  ETV
attr interpolationmode  none
attr title  "packets passed up, vector(count)"
vector 32  CloudGaming.server.rtcp  rcvdPk:vector(packetBytes)  ETV
attr interpolationmode  none
attr source  rcvdPk
attr title  "packets received, vector(packetBytes)"
vector 33  CloudGaming.server.rtcp  endToEndDelay:vector  ETV
attr interpolationmode  none
attr source  messageAge(rcvdPk)
attr title  "end-to-end delay, vector"
attr unit  s
vector 25  CloudGaming.server.udp  sentPk:vector(packetBytes)  ETV
attr interpolationmode  none
attr source  sentPk
attr title  "packets sent, vector(packetBytes)"
vector 39  CloudGaming.server.ppp[0].queue  rcvdPk:vector(packetBytes)  ETV
attr interpolationmode  none
attr title  "received packets, vector(packetBytes)"
vector 41  CloudGaming.server.ppp[0].queue  queueingTime:vector  ETV
attr interpolationmode  none
attr title  "queueing time, vector"
vector 48  CloudGaming.server.ppp[0].ppp  rcvdPkFromHL:vector(packetBytes)  ETV
attr interpolationmode  none
attr source  packetReceivedFromUpper
attr title  "packets received from higher layer, vector(packetBytes)"
vector 44  CloudGaming.server.ppp[0].ppp  txPk:vector(packetBytes)  ETV
attr interpolationmode  none
attr source  packetSentToLower
attr title  "packets transmitted, vector(packetBytes)"
vector 61  CloudGaming.router1.ppp[0].ppp  rxPkOk:vector(packetBytes)  ETV
attr interpolationmode  none
attr source  rxPkOk
attr title  "packets received OK, vector(packetBytes)"
vector 65  CloudGaming.router1.ppp[0].ppp  passedUpPk:vector(packetBytes)  ETV
attr interpolationmode  none
attr source  packetSentToUpper
attr title  "packets passed to higher layer, vector(packetBytes)"
vector 66  CloudGaming.router1.ppp[1].queue  rcvdPk:vector(packetBytes)  ETV
attr interpolationmode  none
attr title  "received packets, vector(packetBytes)"
vector 68  CloudGaming.router1.ppp[1].queue  queueingTime:vector  ETV
attr interpolationmode  none
attr title  "queueing time, vector"
vector 75  CloudGaming.router1.ppp[1].ppp  rcvdPkFromHL:vector(packetBytes)  ETV
attr interpolationmode  none
attr source  packetReceivedFromUpper
attr title  "packets received from higher layer, vector(packetBytes)"
vector 71  CloudGaming.router1.ppp[1].ppp  txPk:vector(packetBytes)  ETV
attr interpolationmode  none
attr source  packetSentToLower
attr title  "packets transmitted, vector(packetBytes)"
vector 20  CloudGaming.client.ppp[0].ppp  rxPkOk:vector(packetBytes)  ETV
attr interpolationmode  none
attr source  rxPkOk
attr title  "packets received OK, vector(packetBytes)"
vector 24  CloudGaming.client.ppp[0].ppp  passedUpPk:vector(packetBytes)  ETV
attr interpolationmode  none
attr source  packetSentToUpper
attr title  "packets passed to higher layer, vector(packetBytes)"
vector 1  CloudGaming.client.udp  rcvdPk:vector(packetBytes)  ETV
attr interpolationmode  none
attr source  rcvdPk
attr title  "packets received, vector(packetBytes)"
vector 2  CloudGaming.client.udp  passedUpPk:vector(count)  ETV
attr interpolationmode  none
attr title  "packets passed up, vector(count)"
vector 7  CloudGaming.client.rtcp  rcvdPk:vector(packetBytes)  ETV
attr interpolationmode  none
attr source  rcvdPk
attr title  "packets received, vector(packetBytes)"
vector 8  CloudGaming.client.rtcp  endToEndDelay:vector  ETV
attr interpolationmode  none
attr source  messageAge(rcvdPk)
attr title  "end-to-end delay, vector"
attr unit  s
vector 5  CloudGaming.client.rtp  rcvdPk:vector(packetBytes)  ETV
attr interpolationmode  none
attr source  rcvdPk
attr title  "packets received, vector(packetBytes)"
vector 6  CloudGaming.client.rtp  endToEndDelay:vector  ETV
attr interpolationmode  none
attr source  messageAge(rcvdPk)
attr title  "end-to-end delay, vector"
attr unit  s
0	29	12.309136991971	29
0	70	15.938769376248	29
0	115	21.945856269481	29
0	145	25.958337438241	29
0	175	31.34367055733	29
0	3445	35.365640758771	53
0	5565	39.029760637464	53
0	5595	44.513224081126	53
0	5640	47.950020883301	29
0	5655	50.085073576936	29
0	5685	53.648464330139	29
0	5715	59.628843037494	29
0	5730	62.256936650715	29
0	5760	67.879667653672	29
0	5808	73.948134438381	37
1	67	12.80920490582	50
1	97	16.08240402776	50
1	112	19.253498909549	50
1	142	22.879272628728	50
1	172	28.18070182985	50
1	202	32.403437660414	50
1	226	32.80944730582	1565
1	247	32.826089332487	1411
1	268	32.842768639154	1490
1	289	32.859436745821	1499
1	310	32.876106612488	1519
1	331	32.892778879155	1554
1	352	32.909455625822	1617
1	373	32.926129652489	1663
1	394	32.942795359156	1657
1	415	32.959474985823	1738
1	436	32.97613461249	1694
1	457	32.992794559157	1652
1	478	33.009450025824	1582
1	499	33.026120212491	1604
1	520	33.042782879158	1579
1	541	33.059446825825	1562
1	562	33.076118772492	1595
1	583	33.092786399159	1601
1	604	33.109450665826	1586
1	625	33.126115252493	1573
1	646	33.14278127916	1569
1	667	33.159445385827	1553
1	688	33.176108052494	1528
1	709	33.192763199161	1456
1	730	33.209426345828	1434
1	751	33.226090612495	1419
1	772	33.242746239162	1350
1	793	33.259410345829	1334
1	814	33.276078292496	1342
1	835	33.292744639163	1340
1	856	33.30941578583	1368
1	877	33.326085332497	1386
1	898	33.342748479164	1364
1	919	33.359421385831	1403
1	940	33.376091732498	1426
1	961	33.392768479165	1489
1	982	33.409448905832	1575
1	1003	33.426113492499	1562
1	1024	33.442776959166	1542
1	1045	33.459441385833	1528
1	1066	33.4761101325	1541
1	1087	33.492790879167	1629
1	1108	33.509454025834	1607
1	1129	33.526119572501	1600
1	1150	33.542790879168	1629
1	1171	33.559455465835	1616
1	1192	33.576112532502	1556
1	1213	33.592776479169	1539
1	1234	33.609442345836	1534
1	1255	33.626109812503	1539
1	1276	33.64278127917	1569
1	1297	33.659446185837	1558
1	1318	33.676124852504	1633
1	1339	33.692796159171	1662
1	1360	33.709441065838	1526
1	1381	33.726102292505	1492
1	1402	33.742769439172	1495
1	1423	33.759443145839	1539
1	1444	33.776102932506	1496
1	1465	33.792760159173	1437
1	1486	33.80943482584	1487
1	1507	33.826113012507	1559
1	1528	33.842785279174	1594
1	1549	33.859449385841	1578
1	1570	33.876124052508	1628
1	1591	33.892790239175	1625
1	1612	33.909451785842	1593
1	1633	33.926121172509	1610
1	1654	33.942787999176	1611
1	1675	33.959452905843	1600
1	1696	33.97611365251	1563
1	1717	33.992783519177	1583
1	1738	34.009453225844	1602
1	1759	34.026117972511	1590
1	1780	34.042804479178	1714
1	1801	34.059461065845	1651
1	1822	34.076117332512	1586
1	1843	34.092787839179	1610
1	1864	34.109457385846	1628
1	1885	34.126124052513	1628
1	1906	34.14280415918	1712
1	1927	34.159479305847	1765
1	1948	34.176139892514	1727
1	1969	34.192796639181	1665
1	1990	34.209462985848	1663
1	2011	34.226125812515	1639
1	2032	34.242805919182	1723
1	2053	34.259470025849	1707
1	2074	34.276128852516	1658
1	2095	34.292779039183	1555
1	2116	34.30945242585	1597
1	2137	34.326101172517	1485
1	2158	34.342772959184	1517
1	2179	34.359428905851	1450
1	2200	34.376092532518	1431
1	2221	34.392764479185	1464
1	2242	34.409418185852	1383
1	2263	34.426094772519	1445
1	2284	34.442751039186	1380
1	2305	34.459418665853	1386
1	2326	34.47608389252	1377
1	2347	34.492748639187	1365
1	2368	34.509409865854	1331
1	2389	34.526077332521	1336
1	2410	34.542743999188	1336
1	2431	34.559409385855	1328
1	2452	34.576083572522	1375
1	2473	34.592754879189	1404
1	2494	34.609421705856	1405
1	2515	34.626093972523	1440
1	2536	34.64276543919	1470
1	2557	34.659433065857	1476
1	2578	34.676101812524	1489
1	2599	34.692771839191	1510
1	2620	34.709437705858	1505
1	2641	34.726103412525	1499
1	2662	34.742763359192	1457
1	2683	34.759427945859	1444
1	2704	34.776096852526	1458
1	2725	34.792760959193	1442
1	2746	34.80943354586	1479
1	2767	34.826098772527	1470
1	2788	34.842760639194	1440
1	2809	34.859427465861	1441
1	2830	34.876101012528	1484
1	2851	34.892764319195	1463
1	2872	34.909431785862	1468
1	2893	34.926093492529	1437
1	2914	34.942759199196	1431
1	2935	34.959418665863	1386
1	2956	34.97608261253	1369
1	2977	34.992747039197	1355
1	2998	35.009406985864	1313
1	3019	35.026067572531	1275
1	3040	35.042730879198	1254
1	3061	35.059388585865	1198
1	3082	35.076056532532	1206
1	3103	35.092720799199	1191
1	3124	35.109385385866	1178
1	3145	35.126053012533	1184
1	3166	35.1427227192	1203
1	3187	35.159394665867	1236
1	3208	35.176064372534	1255
1	3229	35.192737279201	1294
1	3250	35.209411945868	1344
1	3271	35.226082932535	1371
1	3292	35.242771839202	1510
1	3313	35.259452265869	1596
1	3334	35.276118612536	1594
1	3355	35.292790559203	1627
1	3376	35.30944730587	1565
1	3397	35.326110292537	1542
1	3418	35.342784319204	1588
1	3439	35.359455305871	1615
1	3475	35.376120692538	1607
1	3496	35.392784479205	1589
1	3517	35.409453865872	1606
1	3538	35.426107412539	1524
1	3559	35.442771359206	1507
1	3580	35.459434505873	1485
1	3601	35.47609429254	1442
1	3622	35.492765919207	1473
1	3643	35.509425545874	1429
1	3664	35.526084692541	1382
1	3685	35.542757599208	1421
1	3706	35.559437385875	1503
1	3727	35.576102452542	1493
1	3748	35.592781279209	1569
1	3769	35.609445545876	1554
1	3790	35.626098772543	1470
1	3811	35.64276735921	1482
1	3832	35.659438185877	1508
1	3853	35.676102132544	1491
1	3874	35.692771359211	1507
1	3895	35.709443625878	1542
1	3916	35.726121012545	1609
1	3937	35.742795039212	1655
1	3958	35.759457865879	1631
1	3979	35.776126292546	1642
1	4000	35.792780799213	1566
1	4021	35.80944554588	1554
1	4042	35.826101492547	1487
1	4063	35.842788319214	1613
1	4084	35.859456585881	1623
1	4105	35.876120532548	1606
1	4126	35.892761759215	1447
1	4147	35.909421385882	1403
1	4168	35.926080372549	1355
1	4189	35.942751199216	1381
1	4210	35.959414505883	1360
1	4231	35.97608261255	1369
1	4252	35.992741599217	1321
1	4273	36.009407625884	1317
1	4294	36.026070292551	1292
1	4315	36.042736799218	1291
1	4336	36.059404425885	1297
1	4357	36.076067892552	1277
1	4378	36.092728319219	1238
1	4399	36.109388265886	1196
1	4420	36.126058612553	1219
1	4441	36.14271935922	1182
1	4462	36.159403305887	1290
1	4483	36.176077652554	1338
1	4504	36.192737119221	1293
1	4525	36.209399785888	1268
1	4546	36.226052692555	1182
1	4567	36.242722719222	1203
1	4588	36.259388265889	1196
1	4609	36.276056852556	1208
1	4630	36.292727679223	1234
1	4651	36.30939978589	1268
1	4672	36.326066612557	1269
1	4693	36.342740639224	1315
1	4714	36.359405865891	1306
1	4735	36.376079412558	1349
1	4756	36.392745439225	1345
1	4777	36.409404425892	1297
1	4798	36.426069812559	1289
1	4819	36.442733919226	1273
1	4840	36.459404585893	1298
1	4861	36.47607573256	1326
1	4882	36.492748479227	1364
1	4903	36.509414185894	1358
1	4924	36.526085492561	1387
1	4945	36.542746559228	1352
1	4966	36.559410505895	1335
1	4987	36.576076052562	1328
1	5008	36.592746879229	1354
1	5029	36.609416105896	1370
1	5050	36.626081812563	1364
1	5071	36.64275071923	1378
1	5092	36.659412905897	1350
1	5113	36.676079092564	1347
1	5134	36.692755199231	1406
1	5155	36.709427785898	1443
1	5176	36.726107572565	1525
1	5197	36.742794559232	1652
1	5218	36.759462025899	1657
1	5239	36.776097172566	1460
1	5257	36.786852571004	70
1	5275	36.792771679233	1509
1	5296	36.8094356259	1492
1	5317	36.826112692567	1557
1	5338	36.842797279234	1669
1	5359	36.859439145901	1514
1	5380	36.876080212568	1354
1	5401	36.892745599235	1346
1	5422	36.909406825902	1312
1	5443	36.926075572569	1325
1	5464	36.942735039236	1280
1	5485	36.959409545903	1329
1	5506	36.97608373257	1376
1	5527	36.992764319237	1463
1	5548	37.009440105904	1520
1	5592	42.637710474062	70
1	5622	44.981326304211	70
1	5637	47.390987947136	50
1	5682	52.103253914554	50
1	5712	57.572521418085	50
1	5757	62.818264420059	50
1	5787	68.441303668291	50
1	5805	72.437134019352	50
1	5837	77.769071520737	50
1	5852	83.108200261664	50
1	5867	87.054252740564	50
1	5882	91.24244215715	50
1	5897	96.49792191407	50
1	5919	101.336217895048	58
2	67	12.80920490582	1
2	97	16.08240402776	2
2	112	19.253498909549	3
2	142	22.879272628728	4
2	172	28.18070182985	5
2	202	32.403437660414	6
2	226	32.80944730582	7
2	247	32.826089332487	8
2	268	32.842768639154	9
2	289	32.859436745821	10
2	310	32.876106612488	11
2	331	32.892778879155	12
2	352	32.909455625822	13
2	373	32.926129652489	14
2	394	32.942795359156	15
2	415	32.959474985823	16
2	436	32.97613461249	17
2	457	32.992794559157	18
2	478	33.009450025824	19
2	499	33.026120212491	20
2	520	33.042782879158	21
2	541	33.059446825825	22
2	562	33.076118772492	23
2	583	33.092786399159	24
2	604	33.109450665826	25
2	625	33.126115252493	26
2	646	33.14278127916	27
2	667	33.159445385827	28
2	688	33.176108052494	29
2	709	33.192763199161	30
2	730	33.209426345828	31
2	751	33.226090612495	32
2	772	33.242746239162	33
2	793	33.259410345829	34
2	814	33.276078292496	35
2	835	33.292744639163	36
2	856	33.30941578583	37
2	877	33.326085332497	38
2	898	33.342748479164	39
2	919	33.359421385831	40
2	940	33.376091732498	41
2	961	33.392768479165	42
2	982	33.409448905832	43
2	1003	33.426113492499	44
2	1024	33.442776959166	45
2	1045	33.459441385833	46
2	1066	33.4761101325	47
2	1087	33.492790879167	48
2	1108	33.509454025834	49
2	1129	33.526119572501	50
2	1150	33.542790879168	51
2	1171	33.559455465835	52
2	1192	33.576112532502	53
2	1213	33.592776479169	54
2	1234	33.609442345836	55
2	1255	33.626109812503	56
2	1276	33.64278127917	57
2	1297	33.659446185837	58
2	1318	33.676124852504	59
2	1339	33.692796159171	60
2	1360	33.709441065838	61
2	1381	33.726102292505	62
2	1402	33.742769439172	63
2	1423	33.759443145839	64
2	1444	33.776102932506	65
2	1465	33.792760159173	66
2	1486	33.80943482584	67
2	1507	33.826113012507	68
2	1528	33.842785279174	69
2	1549	33.859449385841	70
2	1570	33.876124052508	71
2	1591	33.892790239175	72
2	1612	33.909451785842	73
2	1633	33.926121172509	74
2	1654	33.942787999176	75
2	1675	33.959452905843	76
2	1696	33.97611365251	77
2	1717	33.992783519177	78
2	1738	34.009453225844	79
2	1759	34.026117972511	80
2	1780	34.042804479178	81
2	1801	34.059461065845	82
2	1822	34.076117332512	83
2	1843	34.092787839179	84
2	1864	34.109457385846	85
2	1885	34.126124052513	86
2	1906	34.14280415918	87
2	1927	34.159479305847	88
2	1948	34.176139892514	89
2	1969	34.192796639181	90
2	1990	34.209462985848	91
2	2011	34.226125812515	92
2	2032	34.242805919182	93
2	2053	34.259470025849	94
2	2074	34.276128852516	95
2	2095	34.292779039183	96
2	2116	34.30945242585	97
2	2137	34.326101172517	98
2	2158	34.342772959184	99
2	2179	34.359428905851	100
2	2200	34.376092532518	101
2	2221	34.392764479185	102
2	2242	34.409418185852	103
2	2263	34.426094772519	104
2	2284	34.442751039186	105
2	2305	34.459418665853	106
2	2326	34.47608389252	107
2	2347	34.492748639187	108
2	2368	34.509409865854	109
2	2389	34.526077332521	110
2	2410	34.542743999188	111
2	2431	34.559409385855	112
2	2452	34.576083572522	113
2	2473	34.592754879189	114
2	2494	34.609421705856	115
2	2515	34.626093972523	116
2	2536	34.64276543919	117
2	2557	34.659433065857	118
2	2578	34.676101812524	119
2	2599	34.692771839191	120
2	2620	34.709437705858	121
2	2641	34.726103412525	122
2	2662	34.742763359192	123
2	2683	34.759427945859	124
2	2704	34.776096852526	125
2	2725	34.792760959193	126
2	2746	34.80943354586	127
2	2767	34.826098772527	128
2	2788	34.842760639194	129
2	2809	34.859427465861	130
2	2830	34.876101012528	131
2	2851	34.892764319195	132
2	2872	34.909431785862	133
2	2893	34.926093492529	134
2	2914	34.942759199196	135
2	2935	34.959418665863	136
2	2956	34.97608261253	137
2	2977	34.992747039197	138
2	2998	35.009406985864	139
2	3019	35.026067572531	140
2	3040	35.042730879198	141
2	3061	35.059388585865	142
2	3082	35.076056532532	143
2	3103	35.092720799199	144
2	3124	35.109385385866	145
2	3145	35.126053012533	146
2	3166	35.1427227192	147
2	3187	35.159394665867	148
2	3208	35.176064372534	149
2	3229	35.192737279201	150
2	3250	35.209411945868	151
2	3271	35.226082932535	152
2	3292	35.242771839202	153
2	3313	35.259452265869	154
2	3334	35.276118612536	155
2	3355	35.292790559203	156
2	3376	35.30944730587	157
2	3397	35.326110292537	158
2	3418	35.342784319204	159
2	3439	35.359455305871	160
2	3475	35.376120692538	161
2	3496	35.392784479205	162
2	3517	35.409453865872	163
2	3538	35.426107412539	164
2	3559	35.442771359206	165
2	3580	35.459434505873	166
2	3601	35.47609429254	167
2	3622	35.492765919207	168
2	3643	35.509425545874	169
2	3664	35.526084692541	170
2	3685	35.542757599208	171
2	3706	35.559437385875	172
2	3727	35.576102452542	173
2	3748	35.592781279209	174
2	3769	35.609445545876	175
2	3790	35.626098772543	176
2	3811	35.64276735921	177
2	3832	35.659438185877	178
2	3853	35.676102132544	179
2	3874	35.692771359211	180
2	3895	35.709443625878	181
2	3916	35.726121012545	182
2	3937	35.742795039212	183
2	3958	35.759457865879	184
2	3979	35.776126292546	185
2	4000	35.792780799213	186
2	4021	35.80944554588	187
2	4042	35.826101492547	188
2	4063	35.842788319214	189
2	4084	35.859456585881	190
2	4105	35.876120532548	191
2	4126	35.892761759215	192
2	4147	35.909421385882	193
2	4168	35.926080372549	194
2	4189	35.942751199216	195
2	4210	35.959414505883	196
2	4231	35.97608261255	197
2	4252	35.992741599217	198
2	4273	36.009407625884	199
2	4294	36.026070292551	200
2	4315	36.042736799218	201
2	4336	36.059404425885	202
2	4357	36.076067892552	203
2	4378	36.092728319219	204
2	4399	36.109388265886	205
2	4420	36.126058612553	206
2	4441	36.14271935922	207
2	4462	36.159403305887	208
2	4483	36.176077652554	209
2	4504	36.192737119221	210
2	4525	36.209399785888	211
2	4546	36.226052692555	212
2	4567	36.242722719222	213
2	4588	36.259388265889	214
2	4609	36.276056852556	215
2	4630	36.292727679223	216
2	4651	36.30939978589	217
2	4672	36.326066612557	218
2	4693	36.342740639224	219
2	4714	36.359405865891	220
2	4735	36.376079412558	221
2	4756	36.392745439225	222
2	4777	36.409404425892	223
2	4798	36.426069812559	224
2	4819	36.442733919226	225
2	4840	36.459404585893	226
2	4861	36.47607573256	227
2	4882	36.492748479227	228
2	4903	36.509414185894	229
2	4924	36.526085492561	230
2	4945	36.542746559228	231
2	4966	36.559410505895	232
2	4987	36.576076052562	233
2	5008	36.592746879229	234
2	5029	36.609416105896	235
2	5050	36.626081812563	236
2	5071	36.64275071923	237
2	5092	36.659412905897	238
2	5113	36.676079092564	239
2	5134	36.692755199231	240
2	5155	36.709427785898	241
2	5176	36.726107572565	242
2	5197	36.742794559232	243
2	5218	36.759462025899	244
2	5239	36.776097172566	245
2	5257	36.786852571004	246
2	5275	36.792771679233	247
2	5296	36.8094356259	248
2	5317	36.826112692567	249
2	5338	36.842797279234	250
2	5359	36.859439145901	251
2	5380	36.876080212568	252
2	5401	36.892745599235	253
2	5422	36.909406825902	254
2	5443	36.926075572569	255
2	5464	36.942735039236	256
2	5485	36.959409545903	257
2	5506	36.97608373257	258
2	5527	36.992764319237	259
2	5548	37.009440105904	260
2	5592	42.637710474062	261
2	5622	44.981326304211	262
2	5637	47.390987947136	263
2	5682	52.103253914554	264
2	5712	57.572521418085	265
2	5757	62.818264420059	266
2	5787	68.441303668291	267
2	5805	72.437134019352	268
2	5837	77.769071520737	269
2	5852	83.108200261664	270
2	5867	87.054252740564	271
2	5882	91.24244215715	272
2	5897	96.49792191407	273
2	5919	101.336217895048	274
5	227	32.80944730582	1557
5	248	32.826089332487	1403
5	269	32.842768639154	1482
5	290	32.859436745821	1491
5	311	32.876106612488	1511
5	332	32.892778879155	1546
5	353	32.909455625822	1609
5	374	32.926129652489	1655
5	395	32.942795359156	1649
5	416	32.959474985823	1730
5	437	32.97613461249	1686
5	458	32.992794559157	1644
5	479	33.009450025824	1574
5	500	33.026120212491	1596
5	521	33.042782879158	1571
5	542	33.059446825825	1554
5	563	33.076118772492	1587
5	584	33.092786399159	1593
5	605	33.109450665826	1578
5	626	33.126115252493	1565
5	647	33.14278127916	1561
5	668	33.159445385827	1545
5	689	33.176108052494	1520
5	710	33.192763199161	1448
5	731	33.209426345828	1426
5	752	33.226090612495	1411
5	773	33.242746239162	1342
5	794	33.259410345829	1326
5	815	33.276078292496	1334
5	836	33.292744639163	1332
5	857	33.30941578583	1360
5	878	33.326085332497	1378
5	899	33.342748479164	1356
5	920	33.359421385831	1395
5	941	33.376091732498	1418
5	962	33.392768479165	1481
5	983	33.409448905832	1567
5	1004	33.426113492499	1554
5	1025	33.442776959166	1534
5	1046	33.459441385833	1520
5	1067	33.4761101325	1533
5	1088	33.492790879167	1621
5	1109	33.509454025834	1599
5	1130	33.526119572501	1592
5	1151	33.542790879168	1621
5	1172	33.559455465835	1608
5	1193	33.576112532502	1548
5	1214	33.592776479169	1531
5	1235	33.609442345836	1526
5	1256	33.626109812503	1531
5	1277	33.64278127917	1561
5	1298	33.659446185837	1550
5	1319	33.676124852504	1625
5	1340	33.692796159171	1654
5	1361	33.709441065838	1518
5	1382	33.726102292505	1484
5	1403	33.742769439172	1487
5	1424	33.759443145839	1531
5	1445	33.776102932506	1488
5	1466	33.792760159173	1429
5	1487	33.80943482584	1479
5	1508	33.826113012507	1551
5	1529	33.842785279174	1586
5	1550	33.859449385841	1570
5	1571	33.876124052508	1620
5	1592	33.892790239175	1617
5	1613	33.909451785842	1585
5	1634	33.926121172509	1602
5	1655	33.942787999176	1603
5	1676	33.959452905843	1592
5	1697	33.97611365251	1555
5	1718	33.992783519177	1575
5	1739	34.009453225844	1594
5	1760	34.026117972511	1582
5	1781	34.042804479178	1706
5	1802	34.059461065845	1643
5	1823	34.076117332512	1578
5	1844	34.092787839179	1602
5	1865	34.109457385846	1620
5	1886	34.126124052513	1620
5	1907	34.14280415918	1704
5	1928	34.159479305847	1757
5	1949	34.176139892514	1719
5	1970	34.192796639181	1657
5	1991	34.209462985848	1655
5	2012	34.226125812515	1631
5	2033	34.242805919182	1715
5	2054	34.259470025849	1699
5	2075	34.276128852516	1650
5	2096	34.292779039183	1547
5	2117	34.30945242585	1589
5	2138	34.326101172517	1477
5	2159	34.342772959184	1509
5	2180	34.359428905851	1442
5	2201	34.376092532518	1423
5	2222	34.392764479185	1456
5	2243	34.409418185852	1375
5	2264	34.426094772519	1437
5	2285	34.442751039186	1372
5	2306	34.459418665853	1378
5	2327	34.47608389252	1369
5	2348	34.492748639187	1357
5	2369	34.509409865854	1323
5	2390	34.526077332521	1328
5	2411	34.542743999188	1328
5	2432	34.559409385855	1320
5	2453	34.576083572522	1367
5	2474	34.592754879189	1396
5	2495	34.609421705856	1397
5	2516	34.626093972523	1432
5	2537	34.64276543919	1462
5	2558	34.659433065857	1468
5	2579	34.676101812524	1481
5	2600	34.692771839191	1502
5	2621	34.709437705858	1497
5	2642	34.726103412525	1491
5	2663	34.742763359192	1449
5	2684	34.759427945859	1436
5	2705	34.776096852526	1450
5	2726	34.792760959193	1434
5	2747	34.80943354586	1471
5	2768	34.826098772527	1462
5	2789	34.842760639194	1432
5	2810	34.859427465861	1433
5	2831	34.876101012528	1476
5	2852	34.892764319195	1455
5	2873	34.909431785862	1460
5	2894	34.926093492529	1429
5	2915	34.942759199196	1423
5	2936	34.959418665863	1378
5	2957	34.97608261253	1361
5	2978	34.992747039197	1347
5	2999	35.009406985864	1305
5	3020	35.026067572531	1267
5	3041	35.042730879198	1246
5	3062	35.059388585865	1190
5	3083	35.076056532532	1198
5	3104	35.092720799199	1183
5	3125	35.109385385866	1170
5	3146	35.126053012533	1176
5	3167	35.1427227192	1195
5	3188	35.159394665867	1228
5	3209	35.176064372534	1247
5	3230	35.192737279201	1286
5	3251	35.209411945868	1336
5	3272	35.226082932535	1363
5	3293	35.242771839202	1502
5	3314	35.259452265869	1588
5	3335	35.276118612536	1586
5	3356	35.292790559203	1619
5	3377	35.30944730587	1557
5	3398	35.326110292537	1534
5	3419	35.342784319204	1580
5	3440	35.359455305871	1607
5	3476	35.376120692538	1599
5	3497	35.392784479205	1581
5	3518	35.409453865872	1598
5	3539	35.426107412539	1516
5	3560	35.442771359206	1499
5	3581	35.459434505873	1477
5	3602	35.47609429254	1434
5	3623	35.492765919207	1465
5	3644	35.509425545874	1421
5	3665	35.526084692541	1374
5	3686	35.542757599208	1413
5	3707	35.559437385875	1495
5	3728	35.576102452542	1485
5	3749	35.592781279209	1561
5	3770	35.609445545876	1546
5	3791	35.626098772543	1462
5	3812	35.64276735921	1474
5	3833	35.659438185877	1500
5	3854	35.676102132544	1483
5	3875	35.692771359211	1499
5	3896	35.709443625878	1534
5	3917	35.726121012545	1601
5	3938	35.742795039212	1647
5	3959	35.759457865879	1623
5	3980	35.776126292546	1634
5	4001	35.792780799213	1558
5	4022	35.80944554588	1546
5	4043	35.826101492547	1479
5	4064	35.842788319214	1605
5	4085	35.859456585881	1615
5	4106	35.876120532548	1598
5	4127	35.892761759215	1439
5	4148	35.909421385882	1395
5	4169	35.926080372549	1347
5	4190	35.942751199216	1373
5	4211	35.959414505883	1352
5	4232	35.97608261255	1361
5	4253	35.992741599217	1313
5	4274	36.009407625884	1309
5	4295	36.026070292551	1284
5	4316	36.042736799218	1283
5	4337	36.059404425885	1289
5	4358	36.076067892552	1269
5	4379	36.092728319219	1230
5	4400	36.109388265886	1188
5	4421	36.126058612553	1211
5	4442	36.14271935922	1174
5	4463	36.159403305887	1282
5	4484	36.176077652554	1330
5	4505	36.192737119221	1285
5	4526	36.209399785888	1260
5	4547	36.226052692555	1174
5	4568	36.242722719222	1195
5	4589	36.259388265889	1188
5	4610	36.276056852556	1200
5	4631	36.292727679223	1226
5	4652	36.30939978589	1260
5	4673	36.326066612557	1261
5	4694	36.342740639224	1307
5	4715	36.359405865891	1298
5	4736	36.376079412558	1341
5	4757	36.392745439225	1337
5	4778	36.409404425892	1289
5	4799	36.426069812559	1281
5	4820	36.442733919226	1265
5	4841	36.459404585893	1290
5	4862	36.47607573256	1318
5	4883	36.492748479227	1356
5	4904	36.509414185894	1350
5	4925	36.526085492561	1379
5	4946	36.542746559228	1344
5	4967	36.559410505895	1327
5	4988	36.576076052562	1320
5	5009	36.592746879229	1346
5	5030	36.609416105896	1362
5	5051	36.626081812563	1356
5	5072	36.64275071923	1370
5	5093	36.659412905897	1342
5	5114	36.676079092564	1339
5	5135	36.692755199231	1398
5	5156	36.709427785898	1435
5	5177	36.726107572565	1517
5	5198	36.742794559232	1644
5	5219	36.759462025899	1649
5	5240	36.776097172566	1452
5	5276	36.792771679233	1501
5	5297	36.8094356259	1484
5	5318	36.826112692567	1549
5	5339	36.842797279234	1661
5	5360	36.859439145901	1506
5	5381	36.876080212568	1346
5	5402	36.892745599235	1338
5	5423	36.909406825902	1304
5	5444	36.926075572569	1317
5	5465	36.942735039236	1272
5	5486	36.959409545903	1321
5	5507	36.97608373257	1368
5	5528	36.992764319237	1455
5	5549	37.009440105904	1512
6	227	32.80944730582	0.000538064826
6	248	32.826089332487	0.000513424826
6	269	32.842768639154	0.000526064826
6	290	32.859436745821	0.000527504826
6	311	32.876106612488	0.000530704826
6	332	32.892778879155	0.000536304826
6	353	32.909455625822	0.000546384826
6	374	32.926129652489	0.000553744826
6	395	32.942795359156	0.000552784826
6	416	32.959474985823	0.000565744826
6	437	32.97613461249	0.000558704826
6	458	32.992794559157	0.000551984826
6	479	33.009450025824	0.000540784826
6	500	33.026120212491	0.000544304826
6	521	33.042782879158	0.000540304826
6	542	33.059446825825	0.000537584826
6	563	33.076118772492	0.000542864826
6	584	33.092786399159	0.000543824826
6	605	33.109450665826	0.000541424826
6	626	33.126115252493	0.000539344826
6	647	33.14278127916	0.000538704826
6	668	33.159445385827	0.000536144826
6	689	33.176108052494	0.000532144826
6	710	33.192763199161	0.000520624826
6	731	33.209426345828	0.000517104826
6	752	33.226090612495	0.000514704826
6	773	33.242746239162	0.000503664826
6	794	33.259410345829	0.000501104826
6	815	33.276078292496	0.000502384826
6	836	33.292744639163	0.000502064826
6	857	33.30941578583	0.000506544826
6	878	33.326085332497	0.000509424826
6	899	33.342748479164	0.000505904826
6	920	33.359421385831	0.000512144826
6	941	33.376091732498	0.000515824826
6	962	33.392768479165	0.000525904826
6	983	33.409448905832	0.000539664826
6	1004	33.426113492499	0.000537584826
6	1025	33.442776959166	0.000534384826
6	1046	33.459441385833	0.000532144826
6	1067	33.4761101325	0.000534224826
6	1088	33.492790879167	0.000548304826
6	1109	33.509454025834	0.000544784826
6	1130	33.526119572501	0.000543664826
6	1151	33.542790879168	0.000548304826
6	1172	33.559455465835	0.000546224826
6	1193	33.576112532502	0.000536624826
6	1214	33.592776479169	0.000533904826
6	1235	33.609442345836	0.000533104826
6	1256	33.626109812503	0.000533904826
6	1277	33.64278127917	0.000538704826
6	1298	33.659446185837	0.000536944826
6	1319	33.676124852504	0.000548944826
6	1340	33.692796159171	0.000553584826
6	1361	33.709441065838	0.000531824826
6	1382	33.726102292505	0.000526384826
6	1403	33.742769439172	0.000526864826
6	1424	33.759443145839	0.000533904826
6	1445	33.776102932506	0.000527024826
6	1466	33.792760159173	0.000517584826
6	1487	33.80943482584	0.000525584826
6	1508	33.826113012507	0.000537104826
6	1529	33.842785279174	0.000542704826
6	1550	33.859449385841	0.000540144826
6	1571	33.876124052508	0.000548144826
6	1592	33.892790239175	0.000547664826
6	1613	33.909451785842	0.000542544826
6	1634	33.926121172509	0.000545264826
6	1655	33.942787999176	0.000545424826
6	1676	33.959452905843	0.000543664826
6	1697	33.97611365251	0.000537744826
6	1718	33.992783519177	0.000540944826
6	1739	34.009453225844	0.000543984826
6	1760	34.026117972511	0.000542064826
6	1781	34.042804479178	0.000561904826
6	1802	34.059461065845	0.000551824826
6	1823	34.076117332512	0.000541424826
6	1844	34.092787839179	0.000545264826
6	1865	34.109457385846	0.000548144826
6	1886	34.126124052513	0.000548144826
6	1907	34.14280415918	0.000561584826
6	1928	34.159479305847	0.000570064826
6	1949	34.176139892514	0.000563984826
6	1970	34.192796639181	0.000554064826
6	1991	34.209462985848	0.000553744826
6	2012	34.226125812515	0.000549904826
6	2033	34.242805919182	0.000563344826
6	2054	34.259470025849	0.000560784826
6	2075	34.276128852516	0.000552944826
6	2096	34.292779039183	0.000536464826
6	2117	34.30945242585	0.000543184826
6	2138	34.326101172517	0.000525264826
6	2159	34.342772959184	0.000530384826
6	2180	34.359428905851	0.000519664826
6	2201	34.376092532518	0.000516624826
6	2222	34.392764479185	0.000521904826
6	2243	34.409418185852	0.000508944826
6	2264	34.426094772519	0.000518864826
6	2285	34.442751039186	0.000508464826
6	2306	34.459418665853	0.000509424826
6	2327	34.47608389252	0.000507984826
6	2348	34.492748639187	0.000506064826
6	2369	34.509409865854	0.000500624826
6	2390	34.526077332521	0.000501424826
6	2411	34.542743999188	0.000501424826
6	2432	34.559409385855	0.000500144826
6	2453	34.576083572522	0.000507664826
6	2474	34.592754879189	0.000512304826
6	2495	34.609421705856	0.000512464826
6	2516	34.626093972523	0.000518064826
6	2537	34.64276543919	0.000522864826
6	2558	34.659433065857	0.000523824826
6	2579	34.676101812524	0.000525904826
6	2600	34.692771839191	0.000529264826
6	2621	34.709437705858	0.000528464826
6	2642	34.726103412525	0.000527504826
6	2663	34.742763359192	0.000520784826
6	2684	34.759427945859	0.000518704826
6	2705	34.776096852526	0.000520944826
6	2726	34.792760959193	0.000518384826
6	2747	34.80943354586	0.000524304826
6	2768	34.826098772527	0.000522864826
6	2789	34.842760639194	0.000518064826
6	2810	34.859427465861	0.000518224826
6	2831	34.876101012528	0.000525104826
6	2852	34.892764319195	0.000521744826
6	2873	34.909431785862	0.000522544826
6	2894	34.926093492529	0.000517584826
6	2915	34.942759199196	0.000516624826
6	2936	34.959418665863	0.000509424826
6	2957	34.97608261253	0.000506704826
6	2978	34.992747039197	0.000504464826
6	2999	35.009406985864	0.000497744826
6	3020	35.026067572531	0.000491664826
6	3041	35.042730879198	0.000488304826
6	3062	35.059388585865	0.000479344826
6	3083	35.076056532532	0.000480624826
6	3104	35.092720799199	0.000478224826
6	3125	35.109385385866	0.000476144826
6	3146	35.126053012533	0.000477104826
6	3167	35.1427227192	0.000480144826
6	3188	35.159394665867	0.000485424826
6	3209	35.176064372534	0.000488464826
6	3230	35.192737279201	0.000494704826
6	3251	35.209411945868	0.000502704826
6	3272	35.226082932535	0.000507024826
6	3293	35.242771839202	0.000529264826
6	3314	35.259452265869	0.000543024826
6	3335	35.276118612536	0.000542704826
6	3356	35.292790559203	0.000547984826
6	3377	35.30944730587	0.000538064826
6	3398	35.326110292537	0.000534384826
6	3419	35.342784319204	0.000541744826
6	3440	35.359455305871	0.000546064826
6	3476	35.376120692538	0.000544784826
6	3497	35.392784479205	0.000541904826
6	3518	35.409453865872	0.000544624826
6	3539	35.426107412539	0.000531504826
6	3560	35.442771359206	0.000528784826
6	3581	35.459434505873	0.000525264826
6	3602	35.47609429254	0.000518384826
6	3623	35.492765919207	0.000523344826
6	3644	35.509425545874	0.000516304826
6	3665	35.526084692541	0.000508784826
6	3686	35.542757599208	0.000515024826
6	3707	35.559437385875	0.000528144826
6	3728	35.576102452542	0.000526544826
6	3749	35.592781279209	0.000538704826
6	3770	35.609445545876	0.000536304826
6	3791	35.626098772543	0.000522864826
6	3812	35.64276735921	0.000524784826
6	3833	35.659438185877	0.000528944826
6	3854	35.676102132544	0.000526224826
6	3875	35.692771359211	0.000528784826
6	3896	35.709443625878	0.000534384826
6	3917	35.726121012545	0.000545104826
6	3938	35.742795039212	0.000552464826
6	3959	35.759457865879	0.000548624826
6	3980	35.776126292546	0.000550384826
6	4001	35.792780799213	0.000538224826
6	4022	35.80944554588	0.000536304826
6	4043	35.826101492547	0.000525584826
6	4064	35.842788319214	0.000545744826
6	4085	35.859456585881	0.000547344826
6	4106	35.876120532548	0.000544624826
6	4127	35.892761759215	0.000519184826
6	4148	35.909421385882	0.000512144826
6	4169	35.926080372549	0.000504464826
6	4190	35.942751199216	0.000508624826
6	4211	35.959414505883	0.000505264826
6	4232	35.97608261255	0.000506704826
6	4253	35.992741599217	0.000499024826
6	4274	36.009407625884	0.000498384826
6	4295	36.026070292551	0.000494384826
6	4316	36.042736799218	0.000494224826
6	4337	36.059404425885	0.000495184826
6	4358	36.076067892552	0.000491984826
6	4379	36.092728319219	0.000485744826
6	4400	36.109388265886	0.000479024826
6	4421	36.126058612553	0.000482704826
6	4442	36.14271935922	0.000476784826
6	4463	36.159403305887	0.000494064826
6	4484	36.176077652554	0.000501744826
6	4505	36.192737119221	0.000494544826
6	4526	36.209399785888	0.000490544826
6	4547	36.226052692555	0.000476784826
6	4568	36.242722719222	0.000480144826
6	4589	36.259388265889	0.000479024826
6	4610	36.276056852556	0.000480944826
6	4631	36.292727679223	0.000485104826
6	4652	36.30939978589	0.000490544826
6	4673	36.326066612557	0.000490704826
6	4694	36.342740639224	0.000498064826
6	4715	36.359405865891	0.000496624826
6	4736	36.376079412558	0.000503504826
6	4757	36.392745439225	0.000502864826
6	4778	36.409404425892	0.000495184826
6	4799	36.426069812559	0.000493904826
6	4820	36.442733919226	0.000491344826
6	4841	36.459404585893	0.000495344826
6	4862	36.47607573256	0.000499824826
6	4883	36.492748479227	0.000505904826
6	4904	36.509414185894	0.000504944826
6	4925	36.526085492561	0.000509584826
6	4946	36.542746559228	0.000503984826
6	4967	36.559410505895	0.000501264826
6	4988	36.576076052562	0.000500144826
6	5009	36.592746879229	0.000504304826
6	5030	36.609416105896	0.000506864826
6	5051	36.626081812563	0.000505904826
6	5072	36.64275071923	0.000508144826
6	5093	36.659412905897	0.000503664826
6	5114	36.676079092564	0.000503184826
6	5135	36.692755199231	0.000512624826
6	5156	36.709427785898	0.000518544826
6	5177	36.726107572565	0.000531664826
6	5198	36.742794559232	0.000551984826
6	5219	36.759462025899	0.000552784826
6	5240	36.776097172566	0.000521264826
6	5276	36.792771679233	0.000529104826
6	5297	36.8094356259	0.000526384826
6	5318	36.826112692567	0.000536784826
6	5339	36.842797279234	0.000554704826
6	5360	36.859439145901	0.000529904826
6	5381	36.876080212568	0.000504304826
6	5402	36.892745599235	0.000503024826
6	5423	36.909406825902	0.000497584826
6	5444	36.926075572569	0.000499664826
6	5465	36.942735039236	0.000492464826
6	5486	36.959409545903	0.000500304826
6	5507	36.97608373257	0.000507824826
6	5528	36.992764319237	0.000521744826
6	5549	37.009440105904	0.000530864826
7	68	12.80920490582	42
7	98	16.08240402776	42
7	113	19.253498909549	42
7	143	22.879272628728	42
7	173	28.18070182985	42
7	203	32.403437660414	42
7	5258	36.786852571004	62
7	5593	42.637710474062	62
7	5623	44.981326304211	62
7	5638	47.390987947136	42
7	5683	52.103253914554	42
7	5713	57.572521418085	42
7	5758	62.818264420059	42
7	5788	68.441303668291	42
7	5806	72.437134019352	42
7	5838	77.769071520737	42
7	5853	83.108200261664	42
7	5868	87.054252740564	42
7	5883	91.24244215715	42
7	5898	96.49792191407	42
7	5920	101.336217895048	50
8	68	12.80920490582	0.000295664826
8	98	16.08240402776	0.000295664826
8	113	19.253498909549	0.000295664826
8	143	22.879272628728	0.000295664826
8	173	28.18070182985	0.000295664826
8	203	32.403437660414	0.000295664826
8	5258	36.786852571004	0.000298864826
8	5593	42.637710474062	0.000298864826
8	5623	44.981326304211	0.000298864826
8	5638	47.390987947136	0.000295664826
8	5683	52.103253914554	0.000295664826
8	5713	57.572521418085	0.000295664826
8	5758	62.818264420059	0.000295664826
8	5788	68.441303668291	0.000295664826
8	5806	72.437134019352	0.000295664826
8	5838	77.769071520737	0.000295664826
8	5853	83.108200261664	0.000295664826
8	5868	87.054252740564	0.000295664826
8	5883	91.24244215715	0.000295664826
8	5898	96.49792191407	0.000295664826
8	5920	101.336217895048	0.000296944826
14	32	12.309136991971	49
14	72	15.938769376248	49
14	117	21.945856269481	49
14	147	25.958337438241	49
14	177	31.34367055733	49
14	3447	35.365640758771	73
14	5567	39.029760637464	73
14	5597	44.513224081126	73
14	5642	47.950020883301	49
14	5657	50.085073576936	49
14	5687	53.648464330139	49
14	5717	59.628843037494	49
14	5732	62.256936650715	49
14	5762	67.879667653672	49
14	5812	73.948134438381	57
16	32	12.309136991971	0
16	72	15.938769376248	0
16	117	21.945856269481	0
16	147	25.958337438241	0
16	177	31.34367055733	0
16	3447	35.365640758771	0
16	5567	39.029760637464	0
16	5597	44.513224081126	0
16	5642	47.950020883301	0
16	5657	50.085073576936	0
16	5687	53.648464330139	0
16	5717	59.628843037494	0
16	5732	62.256936650715	0
16	5762	67.879667653672	0
16	5812	73.948134438381	0
17	0	0	0
18	0	0	0
18	33	12.309136991971	1
18	34	12.309141471971	0
18	73	15.938769376248	1
18	74	15.938773856248	0
18	118	21.945856269481	1
18	119	21.945860749481	0
18	148	25.958337438241	1
18	149	25.958341918241	0
18	178	31.34367055733	1
18	179	31.34367503733	0
18	3448	35.365640758771	1
18	3449	35.365647158771	0
18	5568	39.029760637464	1
18	5569	39.029767037464	0
18	5598	44.513224081126	1
18	5599	44.513230481126	0
18	5643	47.950020883301	1
18	5644	47.950025363301	0
18	5658	50.085073576936	1
18	5659	50.085078056936	0
18	5688	53.648464330139	1
18	5689	53.648468810139	0
18	5718	59.628843037494	1
18	5719	59.628847517494	0
18	5733	62.256936650715	1
18	5734	62.256941130715	0
18	5763	67.879667653672	1
18	5764	67.879672133672	0
18	5813	73.948134438381	1
18	5814	73.948139558381	0
19	33	12.309136991971	56
19	73	15.938769376248	56
19	118	21.945856269481	56
19	148	25.958337438241	56
19	178	31.34367055733	56
19	3448	35.365640758771	80
19	5568	39.029760637464	80
19	5598	44.513224081126	80
19	5643	47.950020883301	56
19	5658	50.085073576936	56
19	5688	53.648464330139	56
19	5718	59.628843037494	56
19	5733	62.256936650715	56
19	5763	67.879667653672	56
19	5813	73.948134438381	64
20	65	12.80920490582	77
20	95	16.08240402776	77
20	110	19.253498909549	77
20	140	22.879272628728	77
20	170	28.18070182985	77
20	200	32.403437660414	77
20	224	32.80944730582	1592
20	245	32.826089332487	1438
20	266	32.842768639154	1517
20	287	32.859436745821	1526
20	308	32.876106612488	1546
20	329	32.892778879155	1581
20	350	32.909455625822	1644
20	371	32.926129652489	1690
20	392	32.942795359156	1684
20	413	32.959474985823	1765
20	434	32.97613461249	1721
20	455	32.992794559157	1679
20	476	33.009450025824	1609
20	497	33.026120212491	1631
20	518	33.042782879158	1606
20	539	33.059446825825	1589
20	560	33.076118772492	1622
20	581	33.092786399159	1628
20	602	33.109450665826	1613
20	623	33.126115252493	1600
20	644	33.14278127916	1596
20	665	33.159445385827	1580
20	686	33.176108052494	1555
20	707	33.192763199161	1483
20	728	33.209426345828	1461
20	749	33.226090612495	1446
20	770	33.242746239162	1377
20	791	33.259410345829	1361
20	812	33.276078292496	1369
20	833	33.292744639163	1367
20	854	33.30941578583	1395
20	875	33.326085332497	1413
20	896	33.342748479164	1391
20	917	33.359421385831	1430
20	938	33.376091732498	1453
20	959	33.392768479165	1516
20	980	33.409448905832	1602
20	1001	33.426113492499	1589
20	1022	33.442776959166	1569
20	1043	33.459441385833	1555
20	1064	33.4761101325	1568
20	1085	33.492790879167	1656
20	1106	33.509454025834	1634
20	1127	33.526119572501	1627
20	1148	33.542790879168	1656
20	1169	33.559455465835	1643
20	1190	33.576112532502	1583
20	1211	33.592776479169	1566
20	1232	33.609442345836	1561
20	1253	33.626109812503	1566
20	1274	33.64278127917	1596
20	1295	33.659446185837	1585
20	1316	33.676124852504	1660
20	1337	33.692796159171	1689
20	1358	33.709441065838	1553
20	1379	33.726102292505	1519
20	1400	33.742769439172	1522
20	1421	33.759443145839	1566
20	1442	33.776102932506	1523
20	1463	33.792760159173	1464
20	1484	33.80943482584	1514
20	1505	33.826113012507	1586
20	1526	33.842785279174	1621
20	1547	33.859449385841	1605
20	1568	33.876124052508	1655
20	1589	33.892790239175	1652
20	1610	33.909451785842	1620
20	1631	33.926121172509	1637
20	1652	33.942787999176	1638
20	1673	33.959452905843	1627
20	1694	33.97611365251	1590
20	1715	33.992783519177	1610
20	1736	34.009453225844	1629
20	1757	34.026117972511	1617
20	1778	34.042804479178	1741
20	1799	34.059461065845	1678
20	1820	34.076117332512	1613
20	1841	34.092787839179	1637
20	1862	34.109457385846	1655
20	1883	34.126124052513	1655
20	1904	34.14280415918	1739
20	1925	34.159479305847	1792
20	1946	34.176139892514	1754
20	1967	34.192796639181	1692
20	1988	34.209462985848	1690
20	2009	34.226125812515	1666
20	2030	34.242805919182	1750
20	2051	34.259470025849	1734
20	2072	34.276128852516	1685
20	2093	34.292779039183	1582
20	2114	34.30945242585	1624
20	2135	34.326101172517	1512
20	2156	34.342772959184	1544
20	2177	34.359428905851	1477
20	2198	34.376092532518	1458
20	2219	34.392764479185	1491
20	2240	34.409418185852	1410
20	2261	34.426094772519	1472
20	2282	34.442751039186	1407
20	2303	34.459418665853	1413
20	2324	34.47608389252	1404
20	2345	34.492748639187	1392
20	2366	34.509409865854	1358
20	2387	34.526077332521	1363
20	2408	34.542743999188	1363
20	2429	34.559409385855	1355
20	2450	34.576083572522	1402
20	2471	34.592754879189	1431
20	2492	34.609421705856	1432
20	2513	34.626093972523	1467
20	2534	34.64276543919	1497
20	2555	34.659433065857	1503
20	2576	34.676101812524	1516
20	2597	34.692771839191	1537
20	2618	34.709437705858	1532
20	2639	34.726103412525	1526
20	2660	34.742763359192	1484
20	2681	34.759427945859	1471
20	2702	34.776096852526	1485
20	2723	34.792760959193	1469
20	2744	34.80943354586	1506
20	2765	34.826098772527	1497
20	2786	34.842760639194	1467
20	2807	34.859427465861	1468
20	2828	34.876101012528	1511
20	2849	34.892764319195	1490
20	2870	34.909431785862	1495
20	2891	34.926093492529	1464
20	2912	34.942759199196	1458
20	2933	34.959418665863	1413
20	2954	34.97608261253	1396
20	2975	34.992747039197	1382
20	2996	35.009406985864	1340
20	3017	35.026067572531	1302
20	3038	35.042730879198	1281
20	3059	35.059388585865	1225
20	3080	35.076056532532	1233
20	3101	35.092720799199	1218
20	3122	35.109385385866	1205
20	3143	35.126053012533	1211
20	3164	35.1427227192	1230
20	3185	35.159394665867	1263
20	3206	35.176064372534	1282
20	3227	35.192737279201	1321
20	3248	35.209411945868	1371
20	3269	35.226082932535	1398
20	3290	35.242771839202	1537
20	3311	35.259452265869	1623
20	3332	35.276118612536	1621
20	3353	35.292790559203	1654
20	3374	35.30944730587	1592
20	3395	35.326110292537	1569
20	3416	35.342784319204	1615
20	3437	35.359455305871	1642
20	3473	35.376120692538	1634
20	3494	35.392784479205	1616
20	3515	35.409453865872	1633
20	3536	35.426107412539	1551
20	3557	35.442771359206	1534
20	3578	35.459434505873	1512
20	3599	35.47609429254	1469
20	3620	35.492765919207	1500
20	3641	35.509425545874	1456
20	3662	35.526084692541	1409
20	3683	35.542757599208	1448
20	3704	35.559437385875	1530
20	3725	35.576102452542	1520
20	3746	35.592781279209	1596
20	3767	35.609445545876	1581
20	3788	35.626098772543	1497
20	3809	35.64276735921	1509
20	3830	35.659438185877	1535
20	3851	35.676102132544	1518
20	3872	35.692771359211	1534
20	3893	35.709443625878	1569
20	3914	35.726121012545	1636
20	3935	35.742795039212	1682
20	3956	35.759457865879	1658
20	3977	35.776126292546	1669
20	3998	35.792780799213	1593
20	4019	35.80944554588	1581
20	4040	35.826101492547	1514
20	4061	35.842788319214	1640
20	4082	35.859456585881	1650
20	4103	35.876120532548	1633
20	4124	35.892761759215	1474
20	4145	35.909421385882	1430
20	4166	35.926080372549	1382
20	4187	35.942751199216	1408
20	4208	35.959414505883	1387
20	4229	35.97608261255	1396
20	4250	35.992741599217	1348
20	4271	36.009407625884	1344
20	4292	36.026070292551	1319
20	4313	36.042736799218	1318
20	4334	36.059404425885	1324
20	4355	36.076067892552	1304
20	4376	36.092728319219	1265
20	4397	36.109388265886	1223
20	4418	36.126058612553	1246
20	4439	36.14271935922	1209
20	4460	36.159403305887	1317
20	4481	36.176077652554	1365
20	4502	36.192737119221	1320
20	4523	36.209399785888	1295
20	4544	36.226052692555	1209
20	4565	36.242722719222	1230
20	4586	36.259388265889	1223
20	4607	36.276056852556	1235
20	4628	36.292727679223	1261
20	4649	36.30939978589	1295
20	4670	36.326066612557	1296
20	4691	36.342740639224	1342
20	4712	36.359405865891	1333
20	4733	36.376079412558	1376
20	4754	36.392745439225	1372
20	4775	36.409404425892	1324
20	4796	36.426069812559	1316
20	4817	36.442733919226	1300
20	4838	36.459404585893	1325
20	4859	36.47607573256	1353
20	4880	36.492748479227	1391
20	4901	36.509414185894	1385
20	4922	36.526085492561	1414
20	4943	36.542746559228	1379
20	4964	36.559410505895	1362
20	4985	36.576076052562	1355
20	5006	36.592746879229	1381
20	5027	36.609416105896	1397
20	5048	36.626081812563	1391
20	5069	36.64275071923	1405
20	5090	36.659412905897	1377
20	5111	36.676079092564	1374
20	5132	36.692755199231	1433
20	5153	36.709427785898	1470
20	5174	36.726107572565	1552
20	5195	36.742794559232	1679
20	5216	36.759462025899	1684
20	5237	36.776097172566	1487
20	5255	36.786852571004	97
20	5273	36.792771679233	1536
20	5294	36.8094356259	1519
20	5315	36.826112692567	1584
20	5336	36.842797279234	1696
20	5357	36.859439145901	1541
20	5378	36.876080212568	1381
20	5399	36.892745599235	1373
20	5420	36.909406825902	1339
20	5441	36.926075572569	1352
20	5462	36.942735039236	1307
20	5483	36.959409545903	1356
20	5504	36.97608373257	1403
20	5525	36.992764319237	1490
20	5546	37.009440105904	1547
20	5590	42.637710474062	97
20	5620	44.981326304211	97
20	5635	47.390987947136	77
20	5680	52.103253914554	77
20	5710	57.572521418085	77
20	5755	62.818264420059	77
20	5785	68.441303668291	77
20	5803	72.437134019352	77
20	5835	77.769071520737	77
20	5850	83.108200261664	77
20	5865	87.054252740564	77
20	5880	91.24244215715	77
20	5895	96.49792191407	77
20	5917	101.336217895048	85
23	33	12.309136991971	49
23	73	15.938769376248	49
23	118	21.945856269481	49
23	148	25.958337438241	49
23	178	31.34367055733	49
23	3448	35.365640758771	73
23	5568	39.029760637464	73
23	5598	44.513224081126	73
23	5643	47.950020883301	49
23	5658	50.085073576936	49
23	5688	53.648464330139	49
23	5718	59.628843037494	49
23	5733	62.256936650715	49
23	5763	67.879667653672	49
23	5813	73.948134438381	57
24	65	12.80920490582	70
24	95	16.08240402776	70
24	110	19.253498909549	70
24	140	22.879272628728	70
24	170	28.18070182985	70
24	200	32.403437660414	70
24	224	32.80944730582	1585
24	245	32.826089332487	1431
24	266	32.842768639154	1510
24	287	32.859436745821	1519
24	308	32.876106612488	1539
24	329	32.892778879155	1574
24	350	32.909455625822	1637
24	371	32.926129652489	1683
24	392	32.942795359156	1677
24	413	32.959474985823	1758
24	434	32.97613461249	1714
24	455	32.992794559157	1672
24	476	33.009450025824	1602
24	497	33.026120212491	1624
24	518	33.042782879158	1599
24	539	33.059446825825	1582
24	560	33.076118772492	1615
24	581	33.092786399159	1621
24	602	33.109450665826	1606
24	623	33.126115252493	1593
24	644	33.14278127916	1589
24	665	33.159445385827	1573
24	686	33.176108052494	1548
24	707	33.192763199161	1476
24	728	33.209426345828	1454
24	749	33.226090612495	1439
24	770	33.242746239162	1370
24	791	33.259410345829	1354
24	812	33.276078292496	1362
24	833	33.292744639163	1360
24	854	33.30941578583	1388
24	875	33.326085332497	1406
24	896	33.342748479164	1384
24	917	33.359421385831	1423
24	938	33.376091732498	1446
24	959	33.392768479165	1509
24	980	33.409448905832	1595
24	1001	33.426113492499	1582
24	1022	33.442776959166	1562
24	1043	33.459441385833	1548
24	1064	33.4761101325	1561
24	1085	33.492790879167	1649
24	1106	33.509454025834	1627
24	1127	33.526119572501	1620
24	1148	33.542790879168	1649
24	1169	33.559455465835	1636
24	1190	33.576112532502	1576
24	1211	33.592776479169	1559
24	1232	33.609442345836	1554
24	1253	33.626109812503	1559
24	1274	33.64278127917	1589
24	1295	33.659446185837	1578
24	1316	33.676124852504	1653
24	1337	33.692796159171	1682
24	1358	33.709441065838	1546
24	1379	33.726102292505	1512
24	1400	33.742769439172	1515
24	1421	33.759443145839	1559
24	1442	33.776102932506	1516
24	1463	33.792760159173	1457
24	1484	33.80943482584	1507
24	1505	33.826113012507	1579
24	1526	33.842785279174	1614
24	1547	33.859449385841	1598
24	1568	33.876124052508	1648
24	1589	33.892790239175	1645
24	1610	33.909451785842	1613
24	1631	33.926121172509	1630
24	1652	33.942787999176	1631
24	1673	33.959452905843	1620
24	1694	33.97611365251	1583
24	1715	33.992783519177	1603
24	1736	34.009453225844	1622
24	1757	34.026117972511	1610
24	1778	34.042804479178	1734
24	1799	34.059461065845	1671
24	1820	34.076117332512	1606
24	1841	34.092787839179	1630
24	1862	34.109457385846	1648
24	1883	34.126124052513	1648
24	1904	34.14280415918	1732
24	1925	34.159479305847	1785
24	1946	34.176139892514	1747
24	1967	34.192796639181	1685
24	1988	34.209462985848	1683
24	2009	34.226125812515	1659
24	2030	34.242805919182	1743
24	2051	34.259470025849	1727
24	2072	34.276128852516	1678
24	2093	34.292779039183	1575
24	2114	34.30945242585	1617
24	2135	34.326101172517	1505
24	2156	34.342772959184	1537
24	2177	34.359428905851	1470
24	2198	34.376092532518	1451
24	2219	34.392764479185	1484
24	2240	34.409418185852	1403
24	2261	34.426094772519	1465
24	2282	34.442751039186	1400
24	2303	34.459418665853	1406
24	2324	34.47608389252	1397
24	2345	34.492748639187	1385
24	2366	34.509409865854	1351
24	2387	34.526077332521	1356
24	2408	34.542743999188	1356
24	2429	34.559409385855	1348
24	2450	34.576083572522	1395
24	2471	34.592754879189	1424
24	2492	34.609421705856	1425
24	2513	34.626093972523	1460
24	2534	34.64276543919	1490
24	2555	34.659433065857	1496
24	2576	34.676101812524	1509
24	2597	34.692771839191	1530
24	2618	34.709437705858	1525
24	2639	34.726103412525	1519
24	2660	34.742763359192	1477
24	2681	34.759427945859	1464
24	2702	34.776096852526	1478
24	2723	34.792760959193	1462
24	2744	34.80943354586	1499
24	2765	34.826098772527	1490
24	2786	34.842760639194	1460
24	2807	34.859427465861	1461
24	2828	34.876101012528	1504
24	2849	34.892764319195	1483
24	2870	34.909431785862	1488
24	2891	34.926093492529	1457
24	2912	34.942759199196	1451
24	2933	34.959418665863	1406
24	2954	34.97608261253	1389
24	2975	34.992747039197	1375
24	2996	35.009406985864	1333
24	3017	35.026067572531	1295
24	3038	35.042730879198	1274
24	3059	35.059388585865	1218
24	3080	35.076056532532	1226
24	3101	35.092720799199	1211
24	3122	35.109385385866	1198
24	3143	35.126053012533	1204
24	3164	35.1427227192	1223
24	3185	35.159394665867	1256
24	3206	35.176064372534	1275
24	3227	35.192737279201	1314
24	3248	35.209411945868	1364
24	3269	35.226082932535	1391
24	3290	35.242771839202	1530
24	3311	35.259452265869	1616
24	3332	35.276118612536	1614
24	3353	35.292790559203	1647
24	3374	35.30944730587	1585
24	3395	35.326110292537	1562
24	3416	35.342784319204	1608
24	3437	35.359455305871	1635
24	3473	35.376120692538	1627
24	3494	35.392784479205	1609
24	3515	35.409453865872	1626
24	3536	35.426107412539	1544
24	3557	35.442771359206	1527
24	3578	35.459434505873	1505
24	3599	35.47609429254	1462
24	3620	35.492765919207	1493
24	3641	35.509425545874	1449
24	3662	35.526084692541	1402
24	3683	35.542757599208	1441
24	3704	35.559437385875	1523
24	3725	35.576102452542	1513
24	3746	35.592781279209	1589
24	3767	35.609445545876	1574
24	3788	35.626098772543	1490
24	3809	35.64276735921	1502
24	3830	35.659438185877	1528
24	3851	35.676102132544	1511
24	3872	35.692771359211	1527
24	3893	35.709443625878	1562
24	3914	35.726121012545	1629
24	3935	35.742795039212	1675
24	3956	35.759457865879	1651
24	3977	35.776126292546	1662
24	3998	35.792780799213	1586
24	4019	35.80944554588	1574
24	4040	35.826101492547	1507
24	4061	35.842788319214	1633
24	4082	35.859456585881	1643
24	4103	35.876120532548	1626
24	4124	35.892761759215	1467
24	4145	35.909421385882	1423
24	4166	35.926080372549	1375
24	4187	35.942751199216	1401
24	4208	35.959414505883	1380
24	4229	35.97608261255	1389
24	4250	35.992741599217	1341
24	4271	36.009407625884	1337
24	4292	36.026070292551	1312
24	4313	36.042736799218	1311
24	4334	36.059404425885	1317
24	4355	36.076067892552	1297
24	4376	36.092728319219	1258
24	4397	36.109388265886	1216
24	4418	36.126058612553	1239
24	4439	36.14271935922	1202
24	4460	36.159403305887	1310
24	4481	36.176077652554	1358
24	4502	36.192737119221	1313
24	4523	36.209399785888	1288
24	4544	36.226052692555	1202
24	4565	36.242722719222	1223
24	4586	36.259388265889	1216
24	4607	36.276056852556	1228
24	4628	36.292727679223	1254
24	4649	36.30939978589	1288
24	4670	36.326066612557	1289
24	4691	36.342740639224	1335
24	4712	36.359405865891	1326
24	4733	36.376079412558	1369
24	4754	36.392745439225	1365
24	4775	36.409404425892	1317
24	4796	36.426069812559	1309
24	4817	36.442733919226	1293
24	4838	36.459404585893	1318
24	4859	36.47607573256	1346
24	4880	36.492748479227	1384
24	4901	36.509414185894	1378
24	4922	36.526085492561	1407
24	4943	36.542746559228	1372
24	4964	36.559410505895	1355
24	4985	36.576076052562	1348
24	5006	36.592746879229	1374
24	5027	36.609416105896	1390
24	5048	36.626081812563	1384
24	5069	36.64275071923	1398
24	5090	36.659412905897	1370
24	5111	36.676079092564	1367
24	5132	36.692755199231	1426
24	5153	36.709427785898	1463
24	5174	36.726107572565	1545
24	5195	36.742794559232	1672
24	5216	36.759462025899	1677
24	5237	36.776097172566	1480
24	5255	36.786852571004	90
24	5273	36.792771679233	1529
24	5294	36.8094356259	1512
24	5315	36.826112692567	1577
24	5336	36.842797279234	1689
24	5357	36.859439145901	1534
24	5378	36.876080212568	1374
24	5399	36.892745599235	1366
24	5420	36.909406825902	1332
24	5441	36.926075572569	1345
24	5462	36.942735039236	1300
24	5483	36.959409545903	1349
24	5504	36.97608373257	1396
24	5525	36.992764319237	1483
24	5546	37.009440105904	1540
24	5590	42.637710474062	90
24	5620	44.981326304211	90
24	5635	47.390987947136	70
24	5680	52.103253914554	70
24	5710	57.572521418085	70
24	5755	62.818264420059	70
24	5785	68.441303668291	70
24	5803	72.437134019352	70
24	5835	77.769071520737	70
24	5850	83.108200261664	70
24	5865	87.054252740564	70
24	5880	91.24244215715	70
24	5895	96.49792191407	70
24	5917	101.336217895048	78
25	46	12.808909240994	50
25	85	16.082108362934	50
25	100	19.253203244723	50
25	130	22.878976963902	50
25	160	28.180406165024	50
25	190	32.403141995588	50
25	213	32.808909240994	1565
25	234	32.825575907661	1411
25	255	32.842242574328	1490
25	276	32.858909240995	1499
25	297	32.875575907662	1519
25	318	32.892242574329	1554
25	339	32.908909240996	1617
25	360	32.925575907663	1663
25	381	32.94224257433	1657
25	402	32.958909240997	1738
25	423	32.975575907664	1694
25	444	32.992242574331	1652
25	465	33.008909240998	1582
25	486	33.025575907665	1604
25	507	33.042242574332	1579
25	528	33.058909240999	1562
25	549	33.075575907666	1595
25	570	33.092242574333	1601
25	591	33.108909241	1586
25	612	33.125575907667	1573
25	633	33.142242574334	1569
25	654	33.158909241001	1553
25	675	33.175575907668	1528
25	696	33.192242574335	1456
25	717	33.208909241002	1434
25	738	33.225575907669	1419
25	759	33.242242574336	1350
25	780	33.258909241003	1334
25	801	33.27557590767	1342
25	822	33.292242574337	1340
25	843	33.308909241004	1368
25	864	33.325575907671	1386
25	885	33.342242574338	1364
25	906	33.358909241005	1403
25	927	33.375575907672	1426
25	948	33.392242574339	1489
25	969	33.408909241006	1575
25	990	33.425575907673	1562
25	1011	33.44224257434	1542
25	1032	33.458909241007	1528
25	1053	33.475575907674	1541
25	1074	33.492242574341	1629
25	1095	33.508909241008	1607
25	1116	33.525575907675	1600
25	1137	33.542242574342	1629
25	1158	33.558909241009	1616
25	1179	33.575575907676	1556
25	1200	33.592242574343	1539
25	1221	33.60890924101	1534
25	1242	33.625575907677	1539
25	1263	33.642242574344	1569
25	1284	33.658909241011	1558
25	1305	33.675575907678	1633
25	1326	33.692242574345	1662
25	1347	33.708909241012	1526
25	1368	33.725575907679	1492
25	1389	33.742242574346	1495
25	1410	33.758909241013	1539
25	1431	33.77557590768	1496
25	1452	33.792242574347	1437
25	1473	33.808909241014	1487
25	1494	33.825575907681	1559
25	1515	33.842242574348	1594
25	1536	33.858909241015	1578
25	1557	33.875575907682	1628
25	1578	33.892242574349	1625
25	1599	33.908909241016	1593
25	1620	33.925575907683	1610
25	1641	33.94224257435	1611
25	1662	33.958909241017	1600
25	1683	33.975575907684	1563
25	1704	33.992242574351	1583
25	1725	34.008909241018	1602
25	1746	34.025575907685	1590
25	1767	34.042242574352	1714
25	1788	34.058909241019	1651
25	1809	34.075575907686	1586
25	1830	34.092242574353	1610
25	1851	34.10890924102	1628
25	1872	34.125575907687	1628
25	1893	34.142242574354	1712
25	1914	34.158909241021	1765
25	1935	34.175575907688	1727
25	1956	34.192242574355	1665
25	1977	34.208909241022	1663
25	1998	34.225575907689	1639
25	2019	34.242242574356	1723
25	2040	34.258909241023	1707
25	2061	34.27557590769	1658
25	2082	34.292242574357	1555
25	2103	34.308909241024	1597
25	2124	34.325575907691	1485
25	2145	34.342242574358	1517
25	2166	34.358909241025	1450
25	2187	34.375575907692	1431
25	2208	34.392242574359	1464
25	2229	34.408909241026	1383
25	2250	34.425575907693	1445
25	2271	34.44224257436	1380
25	2292	34.458909241027	1386
25	2313	34.475575907694	1377
25	2334	34.492242574361	1365
25	2355	34.508909241028	1331
25	2376	34.525575907695	1336
25	2397	34.542242574362	1336
25	2418	34.558909241029	1328
25	2439	34.575575907696	1375
25	2460	34.592242574363	1404
25	2481	34.60890924103	1405
25	2502	34.625575907697	1440
25	2523	34.642242574364	1470
25	2544	34.658909241031	1476
25	2565	34.675575907698	1489
25	2586	34.692242574365	1510
25	2607	34.708909241032	1505
25	2628	34.725575907699	1499
25	2649	34.742242574366	1457
25	2670	34.758909241033	1444
25	2691	34.7755759077	1458
25	2712	34.792242574367	1442
25	2733	34.808909241034	1479
25	2754	34.825575907701	1470
25	2775	34.842242574368	1440
25	2796	34.858909241035	1441
25	2817	34.875575907702	1484
25	2838	34.892242574369	1463
25	2859	34.908909241036	1468
25	2880	34.925575907703	1437
25	2901	34.94224257437	1431
25	2922	34.958909241037	1386
25	2943	34.975575907704	1369
25	2964	34.992242574371	1355
25	2985	35.008909241038	1313
25	3006	35.025575907705	1275
25	3027	35.042242574372	1254
25	3048	35.058909241039	1198
25	3069	35.075575907706	1206
25	3090	35.092242574373	1191
25	3111	35.10890924104	1178
25	3132	35.125575907707	1184
25	3153	35.142242574374	1203
25	3174	35.158909241041	1236
25	3195	35.175575907708	1255
25	3216	35.192242574375	1294
25	3237	35.208909241042	1344
25	3258	35.225575907709	1371
25	3279	35.242242574376	1510
25	3300	35.258909241043	1596
25	3321	35.27557590771	1594
25	3342	35.292242574377	1627
25	3363	35.308909241044	1565
25	3384	35.325575907711	1542
25	3405	35.342242574378	1588
25	3426	35.358909241045	1615
25	3462	35.375575907712	1607
25	3483	35.392242574379	1589
25	3504	35.408909241046	1606
25	3525	35.425575907713	1524
25	3546	35.44224257438	1507
25	3567	35.458909241047	1485
25	3588	35.475575907714	1442
25	3609	35.492242574381	1473
25	3630	35.508909241048	1429
25	3651	35.525575907715	1382
25	3672	35.542242574382	1421
25	3693	35.558909241049	1503
25	3714	35.575575907716	1493
25	3735	35.592242574383	1569
25	3756	35.60890924105	1554
25	3777	35.625575907717	1470
25	3798	35.642242574384	1482
25	3819	35.658909241051	1508
25	3840	35.675575907718	1491
25	3861	35.692242574385	1507
25	3882	35.708909241052	1542
25	3903	35.725575907719	1609
25	3924	35.742242574386	1655
25	3945	35.758909241053	1631
25	3966	35.77557590772	1642
25	3987	35.792242574387	1566
25	4008	35.808909241054	1554
25	4029	35.825575907721	1487
25	4050	35.842242574388	1613
25	4071	35.858909241055	1623
25	4092	35.875575907722	1606
25	4113	35.892242574389	1447
25	4134	35.908909241056	1403
25	4155	35.925575907723	1355
25	4176	35.94224257439	1381
25	4197	35.958909241057	1360
25	4218	35.975575907724	1369
25	4239	35.992242574391	1321
25	4260	36.008909241058	1317
25	4281	36.025575907725	1292
25	4302	36.042242574392	1291
25	4323	36.058909241059	1297
25	4344	36.075575907726	1277
25	4365	36.092242574393	1238
25	4386	36.10890924106	1196
25	4407	36.125575907727	1219
25	4428	36.142242574394	1182
25	4449	36.158909241061	1290
25	4470	36.175575907728	1338
25	4491	36.192242574395	1293
25	4512	36.208909241062	1268
25	4533	36.225575907729	1182
25	4554	36.242242574396	1203
25	4575	36.258909241063	1196
25	4596	36.27557590773	1208
25	4617	36.292242574397	1234
25	4638	36.308909241064	1268
25	4659	36.325575907731	1269
25	4680	36.342242574398	1315
25	4701	36.358909241065	1306
25	4722	36.375575907732	1349
25	4743	36.392242574399	1345
25	4764	36.408909241066	1297
25	4785	36.425575907733	1289
25	4806	36.4422425744	1273
25	4827	36.458909241067	1298
25	4848	36.475575907734	1326
25	4869	36.492242574401	1364
25	4890	36.508909241068	1358
25	4911	36.525575907735	1387
25	4932	36.542242574402	1352
25	4953	36.558909241069	1335
25	4974	36.575575907736	1328
25	4995	36.592242574403	1354
25	5016	36.60890924107	1370
25	5037	36.625575907737	1364
25	5058	36.642242574404	1378
25	5079	36.658909241071	1350
25	5100	36.675575907738	1347
25	5121	36.692242574405	1406
25	5142	36.708909241072	1443
25	5163	36.725575907739	1525
25	5184	36.742242574406	1652
25	5205	36.758909241073	1657
25	5226	36.77557590774	1460
25	5245	36.786553706178	70
25	5262	36.792242574407	1509
25	5283	36.808909241074	1492
25	5304	36.825575907741	1557
25	5325	36.842242574408	1669
25	5346	36.858909241075	1514
25	5367	36.875575907742	1354
25	5388	36.892242574409	1346
25	5409	36.908909241076	1312
25	5430	36.925575907743	1325
25	5451	36.94224257441	1280
25	5472	36.958909241077	1329
25	5493	36.975575907744	1376
25	5514	36.992242574411	1463
25	5535	37.008909241078	1520
25	5580	42.637411609236	70
25	5610	44.981027439385	70
25	5625	47.39069228231	50
25	5670	52.102958249728	50
25	5700	57.572225753259	50
25	5745	62.817968755233	50
25	5775	68.441008003465	50
25	5793	72.436838354526	50
25	5825	77.768775855911	50
25	5840	83.107904596838	50
25	5855	87.053957075738	50
25	5870	91.242146492324	50
25	5885	96.497626249244	50
25	5905	101.335920950222	58
26	42	12.309532819544	29
26	82	15.939165203821	29
26	127	21.946252097054	29
26	157	25.958733265814	29
26	187	31.344066384903	29
26	3457	35.366040426344	53
26	5577	39.030160305037	53
26	5607	44.513623748699	53
26	5652	47.950416710874	29
26	5667	50.085469404509	29
26	5697	53.648860157712	29
26	5727	59.629238865067	29
26	5742	62.257332478288	29
26	5772	67.880063481245	29
26	5822	73.948531545954	37
27	42	12.309532819544	1
27	82	15.939165203821	2
27	127	21.946252097054	3
27	157	25.958733265814	4
27	187	31.344066384903	5
27	3457	35.366040426344	6
27	5577	39.030160305037	7
27	5607	44.513623748699	8
27	5652	47.950416710874	9
27	5667	50.085469404509	10
27	5697	53.648860157712	11
27	5727	59.629238865067	12
27	5742	62.257332478288	13
27	5772	67.880063481245	14
27	5822	73.948531545954	15
32	43	12.309532819544	21
32	83	15.939165203821	21
32	128	21.946252097054	21
32	158	25.958733265814	21
32	188	31.344066384903	21
32	3458	35.366040426344	45
32	5578	39.030160305037	45
32	5608	44.513623748699	45
32	5653	47.950416710874	21
32	5668	50.085469404509	21
32	5698	53.648860157712	21
32	5728	59.629238865067	21
32	5743	62.257332478288	21
32	5773	67.880063481245	21
32	5823	73.948531545954	29
33	43	12.309532819544	0.000395827573
33	83	15.939165203821	0.000395827573
33	128	21.946252097054	0.000395827573
33	158	25.958733265814	0.000395827573
33	188	31.344066384903	0.000395827573
33	3458	35.366040426344	0.000399667573
33	5578	39.030160305037	0.000399667573
33	5608	44.513623748699	0.000399667573
33	5653	47.950416710874	0.000395827573
33	5668	50.085469404509	0.000395827573
33	5698	53.648860157712	0.000395827573
33	5728	59.629238865067	0.000395827573
33	5743	62.257332478288	0.000395827573
33	5773	67.880063481245	0.000395827573
33	5823	73.948531545954	0.000397107573
39	50	12.808909240994	70
39	87	16.082108362934	70
39	102	19.253203244723	70
39	132	22.878976963902	70
39	162	28.180406165024	70
39	192	32.403141995588	70
39	216	32.808909240994	1585
39	237	32.825575907661	1431
39	258	32.842242574328	1510
39	279	32.858909240995	1519
39	300	32.875575907662	1539
39	321	32.892242574329	1574
39	342	32.908909240996	1637
39	363	32.925575907663	1683
39	384	32.94224257433	1677
39	405	32.958909240997	1758
39	426	32.975575907664	1714
39	447	32.992242574331	1672
39	468	33.008909240998	1602
39	489	33.025575907665	1624
39	510	33.042242574332	1599
39	531	33.058909240999	1582
39	552	33.075575907666	1615
39	573	33.092242574333	1621
39	594	33.108909241	1606
39	615	33.125575907667	1593
39	636	33.142242574334	1589
39	657	33.158909241001	1573
39	678	33.175575907668	1548
39	699	33.192242574335	1476
39	720	33.208909241002	1454
39	741	33.225575907669	1439
39	762	33.242242574336	1370
39	783	33.258909241003	1354
39	804	33.27557590767	1362
39	825	33.292242574337	1360
39	846	33.308909241004	1388
39	867	33.325575907671	1406
39	888	33.342242574338	1384
39	909	33.358909241005	1423
39	930	33.375575907672	1446
39	951	33.392242574339	1509
39	972	33.408909241006	1595
39	993	33.425575907673	1582
39	1014	33.44224257434	1562
39	1035	33.458909241007	1548
39	1056	33.475575907674	1561
39	1077	33.492242574341	1649
39	1098	33.508909241008	1627
39	1119	33.525575907675	1620
39	1140	33.542242574342	1649
39	1161	33.558909241009	1636
39	1182	33.575575907676	1576
39	1203	33.592242574343	1559
39	1224	33.60890924101	1554
39	1245	33.625575907677	1559
39	1266	33.642242574344	1589
39	1287	33.658909241011	1578
39	1308	33.675575907678	1653
39	1329	33.692242574345	1682
39	1350	33.708909241012	1546
39	1371	33.725575907679	1512
39	1392	33.742242574346	1515
39	1413	33.758909241013	1559
39	1434	33.77557590768	1516
39	1455	33.792242574347	1457
39	1476	33.808909241014	1507
39	1497	33.825575907681	1579
39	1518	33.842242574348	1614
39	1539	33.858909241015	1598
39	1560	33.875575907682	1648
39	1581	33.892242574349	1645
39	1602	33.908909241016	1613
39	1623	33.925575907683	1630
39	1644	33.94224257435	1631
39	1665	33.958909241017	1620
39	1686	33.975575907684	1583
39	1707	33.992242574351	1603
39	1728	34.008909241018	1622
39	1749	34.025575907685	1610
39	1770	34.042242574352	1734
39	1791	34.058909241019	1671
39	1812	34.075575907686	1606
39	1833	34.092242574353	1630
39	1854	34.10890924102	1648
39	1875	34.125575907687	1648
39	1896	34.142242574354	1732
39	1917	34.158909241021	1785
39	1938	34.175575907688	1747
39	1959	34.192242574355	1685
39	1980	34.208909241022	1683
39	2001	34.225575907689	1659
39	2022	34.242242574356	1743
39	2043	34.258909241023	1727
39	2064	34.27557590769	1678
39	2085	34.292242574357	1575
39	2106	34.308909241024	1617
39	2127	34.325575907691	1505
39	2148	34.342242574358	1537
39	2169	34.358909241025	1470
39	2190	34.375575907692	1451
39	2211	34.392242574359	1484
39	2232	34.408909241026	1403
39	2253	34.425575907693	1465
39	2274	34.44224257436	1400
39	2295	34.458909241027	1406
39	2316	34.475575907694	1397
39	2337	34.492242574361	1385
39	2358	34.508909241028	1351
39	2379	34.525575907695	1356
39	2400	34.542242574362	1356
39	2421	34.558909241029	1348
39	2442	34.575575907696	1395
39	2463	34.592242574363	1424
39	2484	34.60890924103	1425
39	2505	34.625575907697	1460
39	2526	34.642242574364	1490
39	2547	34.658909241031	1496
39	2568	34.675575907698	1509
39	2589	34.692242574365	1530
39	2610	34.708909241032	1525
39	2631	34.725575907699	1519
39	2652	34.742242574366	1477
39	2673	34.758909241033	1464
39	2694	34.7755759077	1478
39	2715	34.792242574367	1462
39	2736	34.808909241034	1499
39	2757	34.825575907701	1490
39	2778	34.842242574368	1460
39	2799	34.858909241035	1461
39	2820	34.875575907702	1504
39	2841	34.892242574369	1483
39	2862	34.908909241036	1488
39	2883	34.925575907703	1457
39	2904	34.94224257437	1451
39	2925	34.958909241037	1406
39	2946	34.975575907704	1389
39	2967	34.992242574371	1375
39	2988	35.008909241038	1333
39	3009	35.025575907705	1295
39	3030	35.042242574372	1274
39	3051	35.058909241039	1218
39	3072	35.075575907706	1226
39	3093	35.092242574373	1211
39	3114	35.10890924104	1198
39	3135	35.125575907707	1204
39	3156	35.142242574374	1223
39	3177	35.158909241041	1256
39	3198	35.175575907708	1275
39	3219	35.192242574375	1314
39	3240	35.208909241042	1364
39	3261	35.225575907709	1391
39	3282	35.242242574376	1530
39	3303	35.258909241043	1616
39	3324	35.27557590771	1614
39	3345	35.292242574377	1647
39	3366	35.308909241044	1585
39	3387	35.325575907711	1562
39	3408	35.342242574378	1608
39	3429	35.358909241045	1635
39	3465	35.375575907712	1627
39	3486	35.392242574379	1609
39	3507	35.408909241046	1626
39	3528	35.425575907713	1544
39	3549	35.44224257438	1527
39	3570	35.458909241047	1505
39	3591	35.475575907714	1462
39	3612	35.492242574381	1493
39	3633	35.508909241048	1449
39	3654	35.525575907715	1402
39	3675	35.542242574382	1441
39	3696	35.558909241049	1523
39	3717	35.575575907716	1513
39	3738	35.592242574383	1589
39	3759	35.60890924105	1574
39	3780	35.625575907717	1490
39	3801	35.642242574384	1502
39	3822	35.658909241051	1528
39	3843	35.675575907718	1511
39	3864	35.692242574385	1527
39	3885	35.708909241052	1562
39	3906	35.725575907719	1629
39	3927	35.742242574386	1675
39	3948	35.758909241053	1651
39	3969	35.77557590772	1662
39	3990	35.792242574387	1586
39	4011	35.808909241054	1574
39	4032	35.825575907721	1507
39	4053	35.842242574388	1633
39	4074	35.858909241055	1643
39	4095	35.875575907722	1626
39	4116	35.892242574389	1467
39	4137	35.908909241056	1423
39	4158	35.925575907723	1375
39	4179	35.94224257439	1401
39	4200	35.958909241057	1380
39	4221	35.975575907724	1389
39	4242	35.992242574391	1341
39	4263	36.008909241058	1337
39	4284	36.025575907725	1312
39	4305	36.042242574392	1311
39	4326	36.058909241059	1317
39	4347	36.075575907726	1297
39	4368	36.092242574393	1258
39	4389	36.10890924106	1216
39	4410	36.125575907727	1239
39	4431	36.142242574394	1202
39	4452	36.158909241061	1310
39	4473	36.175575907728	1358
39	4494	36.192242574395	1313
39	4515	36.208909241062	1288
39	4536	36.225575907729	1202
39	4557	36.242242574396	1223
39	4578	36.258909241063	1216
39	4599	36.27557590773	1228
39	4620	36.292242574397	1254
39	4641	36.308909241064	1288
39	4662	36.325575907731	1289
39	4683	36.342242574398	1335
39	4704	36.358909241065	1326
39	4725	36.375575907732	1369
39	4746	36.392242574399	1365
39	4767	36.408909241066	1317
39	4788	36.425575907733	1309
39	4809	36.4422425744	1293
39	4830	36.458909241067	1318
39	4851	36.475575907734	1346
39	4872	36.492242574401	1384
39	4893	36.508909241068	1378
39	4914	36.525575907735	1407
39	4935	36.542242574402	1372
39	4956	36.558909241069	1355
39	4977	36.575575907736	1348
39	4998	36.592242574403	1374
39	5019	36.60890924107	1390
39	5040	36.625575907737	1384
39	5061	36.642242574404	1398
39	5082	36.658909241071	1370
39	5103	36.675575907738	1367
39	5124	36.692242574405	1426
39	5145	36.708909241072	1463
39	5166	36.725575907739	1545
39	5187	36.742242574406	1672
39	5208	36.758909241073	1677
39	5229	36.77557590774	1480
39	5247	36.786553706178	90
39	5265	36.792242574407	1529
39	5286	36.808909241074	1512
39	5307	36.825575907741	1577
39	5328	36.842242574408	1689
39	5349	36.858909241075	1534
39	5370	36.875575907742	1374
39	5391	36.892242574409	1366
39	5412	36.908909241076	1332
39	5433	36.925575907743	1345
39	5454	36.94224257441	1300
39	5475	36.958909241077	1349
39	5496	36.975575907744	1396
39	5517	36.992242574411	1483
39	5538	37.008909241078	1540
39	5582	42.637411609236	90
39	5612	44.981027439385	90
39	5627	47.39069228231	70
39	5672	52.102958249728	70
39	5702	57.572225753259	70
39	5747	62.817968755233	70
39	5777	68.441008003465	70
39	5795	72.436838354526	70
39	5827	77.768775855911	70
39	5842	83.107904596838	70
39	5857	87.053957075738	70
39	5872	91.242146492324	70
39	5887	96.497626249244	70
39	5909	101.335920950222	78
41	50	12.808909240994	0
41	87	16.082108362934	0
41	102	19.253203244723	0
41	132	22.878976963902	0
41	162	28.180406165024	0
41	192	32.403141995588	0
41	216	32.808909240994	0
41	237	32.825575907661	0
41	258	32.842242574328	0
41	279	32.858909240995	0
41	300	32.875575907662	0
41	321	32.892242574329	0
41	342	32.908909240996	0
41	363	32.925575907663	0
41	384	32.94224257433	0
41	405	32.958909240997	0
41	426	32.975575907664	0
41	447	32.992242574331	0
41	468	33.008909240998	0
41	489	33.025575907665	0
41	510	33.042242574332	0
41	531	33.058909240999	0
41	552	33.075575907666	0
41	573	33.092242574333	0
41	594	33.108909241	0
41	615	33.125575907667	0
41	636	33.142242574334	0
41	657	33.158909241001	0
41	678	33.175575907668	0
41	699	33.192242574335	0
41	720	33.208909241002	0
41	741	33.225575907669	0
41	762	33.242242574336	0
41	783	33.258909241003	0
41	804	33.27557590767	0
41	825	33.292242574337	0
41	846	33.308909241004	0
41	867	33.325575907671	0
41	888	33.342242574338	0
41	909	33.358909241005	0
41	930	33.375575907672	0
41	951	33.392242574339	0
41	972	33.408909241006	0
41	993	33.425575907673	0
41	1014	33.44224257434	0
41	1035	33.458909241007	0
41	1056	33.475575907674	0
41	1077	33.492242574341	0
41	1098	33.508909241008	0
41	1119	33.525575907675	0
41	1140	33.542242574342	0
41	1161	33.558909241009	0
41	1182	33.575575907676	0
41	1203	33.592242574343	0
41	1224	33.60890924101	0
41	1245	33.625575907677	0
41	1266	33.642242574344	0
41	1287	33.658909241011	0
41	1308	33.675575907678	0
41	1329	33.692242574345	0
41	1350	33.708909241012	0
41	1371	33.725575907679	0
41	1392	33.742242574346	0
41	1413	33.758909241013	0
41	1434	33.77557590768	0
41	1455	33.792242574347	0
41	1476	33.808909241014	0
41	1497	33.825575907681	0
41	1518	33.842242574348	0
41	1539	33.858909241015	0
41	1560	33.875575907682	0
41	1581	33.892242574349	0
41	1602	33.908909241016	0
41	1623	33.925575907683	0
41	1644	33.94224257435	0
41	1665	33.958909241017	0
41	1686	33.975575907684	0
41	1707	33.992242574351	0
41	1728	34.008909241018	0
41	1749	34.025575907685	0
41	1770	34.042242574352	0
41	1791	34.058909241019	0
41	1812	34.075575907686	0
41	1833	34.092242574353	0
41	1854	34.10890924102	0
41	1875	34.125575907687	0
41	1896	34.142242574354	0
41	1917	34.158909241021	0
41	1938	34.175575907688	0
41	1959	34.192242574355	0
41	1980	34.208909241022	0
41	2001	34.225575907689	0
41	2022	34.242242574356	0
41	2043	34.258909241023	0
41	2064	34.27557590769	0
41	2085	34.292242574357	0
41	2106	34.308909241024	0
41	2127	34.325575907691	0
41	2148	34.342242574358	0
41	2169	34.358909241025	0
41	2190	34.375575907692	0
41	2211	34.392242574359	0
41	2232	34.408909241026	0
41	2253	34.425575907693	0
41	2274	34.44224257436	0
41	2295	34.458909241027	0
41	2316	34.475575907694	0
41	2337	34.492242574361	0
41	2358	34.508909241028	0
41	2379	34.525575907695	0
41	2400	34.542242574362	0
41	2421	34.558909241029	0
41	2442	34.575575907696	0
41	2463	34.592242574363	0
41	2484	34.60890924103	0
41	2505	34.625575907697	0
41	2526	34.642242574364	0
41	2547	34.658909241031	0
41	2568	34.675575907698	0
41	2589	34.692242574365	0
41	2610	34.708909241032	0
41	2631	34.725575907699	0
41	2652	34.742242574366	0
41	2673	34.758909241033	0
41	2694	34.7755759077	0
41	2715	34.792242574367	0
41	2736	34.808909241034	0
41	2757	34.825575907701	0
41	2778	34.842242574368	0
41	2799	34.858909241035	0
41	2820	34.875575907702	0
41	2841	34.892242574369	0
41	2862	34.908909241036	0
41	2883	34.925575907703	0
41	2904	34.94224257437	0
[...]
70	4437	36.142436644885	1
70	4438	36.142533364885	0
70	4458	36.159111951552	1
70	4459	36.159217311552	0
70	4479	36.175782458219	1
70	4480	36.175891658219	0
70	4500	36.192445524886	1
70	4501	36.192551124886	0
70	4521	36.209110191553	1
70	4522	36.209213791553	0
70	4542	36.22576997822	1
70	4543	36.22586669822	0
70	4563	36.242438324887	1
70	4564	36.242536724887	0
70	4584	36.259104431554	1
70	4585	36.259202271554	0
70	4605	36.275772058221	1
70	4606	36.275870858221	0
70	4626	36.292440804888	1
70	4627	36.292541684888	0
70	4647	36.309110191555	1
70	4648	36.309213791555	0
70	4668	36.325776938222	1
70	4669	36.325880618222	0
70	4689	36.342447284889	1
70	4690	36.342554644889	0
70	4710	36.359113231556	1
70	4711	36.359219871556	0
70	4731	36.375783338223	1
70	4732	36.375893418223	0
70	4752	36.39244968489	1
70	4753	36.39255944489	0
70	4773	36.409112511557	1
70	4774	36.409218431557	0
70	4794	36.425778538224	1
70	4795	36.425883818224	0
70	4815	36.442443924891	1
70	4816	36.442547924891	0
70	4836	36.459112591558	1
70	4837	36.459218591558	0
70	4857	36.475781498225	1
70	4858	36.475889738225	0
70	4878	36.492451204892	1
70	4879	36.492562484892	0
70	4899	36.509117391559	1
70	4900	36.509228191559	0
70	4920	36.525786378226	1
70	4921	36.525899498226	0
70	4941	36.542450244893	1
70	4942	36.542560564893	0
70	4962	36.55911555156	1
70	4963	36.55922451156	0
70	4983	36.575781658227	1
70	4984	36.575890058227	0
70	5004	36.592450404894	1
70	5005	36.592560884894	0
70	5025	36.609118351561	1
70	5026	36.609230111561	0
70	5046	36.625784538228	1
70	5047	36.625895818228	0
70	5067	36.642452324895	1
70	5068	36.642564724895	0
70	5088	36.659116751562	1
70	5089	36.659226911562	0
70	5109	36.675783178229	1
70	5110	36.675893098229	0
70	5130	36.692454564896	1
70	5131	36.692569204896	0
70	5151	36.709124191563	1
70	5152	36.709241791563	0
70	5172	36.72579741823	1
70	5173	36.72592157823	0
70	5193	36.742474244897	1
70	5194	36.742608564897	0
70	5214	36.759141311564	1
70	5215	36.759276031564	0
70	5235	36.775792218231	1
70	5236	36.775911178231	0
70	5253	36.786658816669	1
70	5254	36.786666576669	0
70	5271	36.792462804898	1
70	5272	36.792585684898	0
70	5292	36.809128111565	1
70	5293	36.809249631565	0
70	5313	36.825799978232	1
70	5314	36.825926698232	0
70	5334	36.842475604899	1
70	5335	36.842611284899	0
70	5355	36.859129871566	1
70	5356	36.859253151566	0
70	5376	36.875783738233	1
70	5377	36.875894218233	0
70	5397	36.8924497649	1
70	5398	36.8925596049	0
70	5418	36.909113711567	1
70	5419	36.909220831567	0
70	5439	36.925781418234	1
70	5440	36.925889578234	0
70	5460	36.942444484901	1
70	5461	36.942549044901	0
70	5481	36.959115071568	1
70	5482	36.959223551568	0
70	5502	36.975785498235	1
70	5503	36.975897738235	0
70	5523	36.992459124902	1
70	5524	36.992578324902	0
70	5544	37.009130351569	1
70	5545	37.009254111569	0
70	5588	42.637516719727	1
70	5589	42.637524479727	0
70	5618	44.981132549876	1
70	5619	44.981140309876	0
70	5633	47.390795792801	1
70	5634	47.390801952801	0
70	5678	52.103061760219	1
70	5679	52.103067920219	0
70	5708	57.57232926375	1
70	5709	57.57233542375	0
70	5753	62.818072265724	1
70	5754	62.818078425724	0
70	5783	68.441111513956	1
70	5784	68.441117673956	0
70	5801	72.436941865017	1
70	5802	72.436948025017	0
70	5833	77.768879366402	1
70	5834	77.768885526402	0
70	5848	83.108008107329	1
70	5849	83.108014267329	0
70	5863	87.054060586229	1
70	5864	87.054066746229	0
70	5878	91.242250002815	1
70	5879	91.242256162815	0
70	5893	96.497729759735	1
70	5894	96.497735919735	0
70	5915	101.336025100713	1
70	5916	101.336031900713	0
71	63	12.809012751485	77
71	93	16.082211873425	77
71	108	19.253306755214	77
71	138	22.879080474393	77
71	168	28.180509675515	77
71	198	32.403245506079	77
71	222	32.809133951485	1592
71	243	32.825788298152	1438
71	264	32.842461284819	1517
71	285	32.859128671486	1526
71	306	32.875796938153	1546
71	327	32.89246640482	1581
71	348	32.909138111487	1644
71	369	32.925808458154	1690
71	390	32.942474644821	1684
71	411	32.959147791488	1765
71	432	32.975810938155	1721
71	453	32.992474244822	1679
71	474	33.009135311489	1609
71	495	33.025803738156	1631
71	516	33.042468404823	1606
71	537	33.05913371149	1589
71	558	33.075803018157	1622
71	579	33.092470164824	1628
71	600	33.109135631491	1613
71	621	33.125801258158	1600
71	642	33.142467604825	1596
71	663	33.159132991492	1580
71	684	33.175797658159	1555
71	705	33.192458564826	1483
71	726	33.209123471493	1461
71	747	33.22578893816	1446
71	768	33.242450084827	1377
71	789	33.259115471494	1361
71	810	33.275782778161	1369
71	831	33.292449284828	1367
71	852	33.309118191495	1395
71	873	33.325786298162	1413
71	894	33.342451204829	1391
71	915	33.359120991496	1430
71	936	33.375789498163	1453
71	957	33.39246120483	1516
71	978	33.409134751497	1602
71	999	33.425800378164	1589
71	1020	33.442465444831	1569
71	1041	33.459130991498	1555
71	1062	33.475798698165	1568
71	1083	33.492472404832	1656
71	1104	33.509137311499	1634
71	1125	33.525803418166	1627
71	1146	33.542472404833	1656
71	1167	33.5591380315	1643
71	1188	33.575799898167	1583
71	1209	33.592465204834	1566
71	1230	33.609131471501	1561
71	1251	33.625798538168	1566
71	1272	33.642467604835	1596
71	1293	33.659133391502	1585
71	1314	33.675806058169	1660
71	1335	33.692475044836	1689
71	1356	33.709130831503	1553
71	1377	33.72579477817	1519
71	1398	33.742461684837	1522
71	1419	33.759131871504	1566
71	1440	33.775795098171	1523
71	1461	33.792457044838	1464
71	1482	33.809127711505	1514
71	1503	33.825800138172	1586
71	1524	33.842469604839	1621
71	1545	33.859134991506	1605
71	1566	33.875805658173	1655
71	1587	33.89247208484	1652
71	1608	33.909136191507	1620
71	1629	33.925804218174	1637
71	1650	33.942470964841	1638
71	1671	33.959136751508	1627
71	1692	33.975800458175	1590
71	1713	33.992468724842	1610
71	1734	34.009136911509	1629
71	1755	34.025802618176	1617
71	1776	34.042479204843	1741
71	1797	34.05914083151	1678
71	1818	34.075802298177	1613
71	1839	34.092470884844	1637
71	1860	34.109138991511	1655
71	1881	34.125805658178	1655
71	1902	34.142479044845	1739
71	1923	34.159149951512	1792
71	1944	34.175813578179	1754
71	1965	34.192475284846	1692
71	1986	34.209141791513	1690
71	2007	34.22580653818	1666
71	2028	34.242479924847	1750
71	2049	34.259145311514	1734
71	2070	34.275808058181	1685
71	2091	34.292466484848	1582
71	2112	34.309136511515	1624
71	2133	34.325794218182	1512
71	2154	34.342463444849	1544
71	2175	34.359124751516	1477
71	2196	34.375789898183	1458
71	2217	34.39245920485	1491
71	2238	34.409119391517	1410
71	2259	34.425791018184	1472
71	2280	34.442452484851	1407
71	2301	34.459119631518	1413
71	2322	34.475785578185	1404
71	2343	34.492451284852	1392
71	2364	34.509115231519	1358
71	2385	34.525782298186	1363
71	2406	34.542448964853	1363
71	2427	34.55911499152	1355
71	2448	34.575785418187	1402
71	2469	34.592454404854	1431
71	2490	34.609121151521	1432
71	2511	34.625790618188	1467
71	2532	34.642459684855	1497
71	2553	34.659126831522	1503
71	2574	34.675794538189	1516
71	2595	34.692462884856	1537
71	2616	34.709129151523	1532
71	2637	34.72579533819	1526
71	2658	34.742458644857	1484
71	2679	34.759124271524	1471
71	2700	34.775792058191	1485
71	2721	34.792457444858	1469
71	2742	34.809127071525	1506
71	2763	34.825793018192	1497
71	2784	34.842457284859	1467
71	2805	34.859124031526	1468
71	2826	34.875794138193	1511
71	2847	34.89245912486	1490
71	2868	34.909126191527	1495
71	2889	34.925790378194	1464
71	2910	34.942456564861	1458
71	2931	34.959119631528	1413
71	2952	34.975784938195	1396
71	2973	34.992450484862	1382
71	2994	35.009113791529	1340
71	3015	35.025777418196	1302
71	3036	35.042442404863	1281
71	3057	35.05910459153	1225
71	3078	35.075771898197	1233
71	3099	35.092437364864	1218
71	3120	35.109102991531	1205
71	3141	35.125770138198	1211
71	3162	35.142438324865	1230
71	3183	35.159107631532	1263
71	3204	35.175775818199	1282
71	3225	35.192445604866	1321
71	3246	35.209116271533	1371
71	3267	35.2257850982	1398
71	3288	35.242462884867	1537
71	3309	35.259136431534	1623
71	3330	35.275802938201	1621
71	3351	35.292472244868	1654
71	3372	35.309133951535	1592
71	3393	35.325798778202	1569
71	3414	35.342469124869	1615
71	3435	35.359137951536	1642
71	3471	35.375803978203	1634
71	3492	35.39246920487	1616
71	3513	35.409137231537	1633
71	3534	35.425797338204	1551
71	3555	35.442462644871	1534
71	3576	35.459127551538	1512
71	3597	35.475790778205	1469
71	3618	35.492459924872	1500
71	3639	35.509123071539	1456
71	3660	35.525785978206	1409
71	3681	35.542455764873	1448
71	3702	35.55912899154	1530
71	3723	35.575794858207	1520
71	3744	35.592467604874	1596
71	3765	35.609133071541	1581
71	3786	35.625793018208	1497
71	3807	35.642460644875	1509
71	3828	35.659129391542	1535
71	3849	35.675794698209	1518
71	3870	35.692462644876	1534
71	3891	35.709132111543	1569
71	3912	35.72580413821	1636
71	3933	35.742474484877	1682
71	3954	35.759139231544	1658
71	3975	35.775806778211	1669
71	3996	35.792467364878	1593
71	4017	35.809133071545	1581
71	4038	35.825794378212	1514
71	4059	35.842471124879	1640
71	4080	35.859138591546	1650
71	4101	35.875803898213	1633
71	4122	35.89245784488	1474
71	4143	35.909120991547	1430
71	4164	35.925783818214	1382
71	4185	35.942452564881	1408
71	4206	35.959117551548	1387
71	4227	35.975784938215	1396
71	4248	35.992447764882	1348
71	4269	36.009114111549	1344
71	4290	36.025778778216	1319
71	4311	36.042445364883	1318
71	4332	36.05911251155	1324
71	4353	36.075777578217	1304
71	4374	36.092441124884	1265
71	4395	36.109104431551	1223
71	4416	36.125772938218	1246
71	4437	36.142436644885	1209
71	4458	36.159111951552	1317
71	4479	36.175782458219	1365
71	4500	36.192445524886	1320
71	4521	36.209110191553	1295
71	4542	36.22576997822	1209
71	4563	36.242438324887	1230
71	4584	36.259104431554	1223
71	4605	36.275772058221	1235
71	4626	36.292440804888	1261
71	4647	36.309110191555	1295
71	4668	36.325776938222	1296
71	4689	36.342447284889	1342
71	4710	36.359113231556	1333
71	4731	36.375783338223	1376
71	4752	36.39244968489	1372
71	4773	36.409112511557	1324
71	4794	36.425778538224	1316
71	4815	36.442443924891	1300
71	4836	36.459112591558	1325
71	4857	36.475781498225	1353
71	4878	36.492451204892	1391
71	4899	36.509117391559	1385
71	4920	36.525786378226	1414
71	4941	36.542450244893	1379
71	4962	36.55911555156	1362
71	4983	36.575781658227	1355
71	5004	36.592450404894	1381
71	5025	36.609118351561	1397
71	5046	36.625784538228	1391
71	5067	36.642452324895	1405
71	5088	36.659116751562	1377
71	5109	36.675783178229	1374
71	5130	36.692454564896	1433
71	5151	36.709124191563	1470
71	5172	36.72579741823	1552
71	5193	36.742474244897	1679
71	5214	36.759141311564	1684
71	5235	36.775792218231	1487
71	5253	36.786658816669	97
71	5271	36.792462804898	1536
71	5292	36.809128111565	1519
71	5313	36.825799978232	1584
71	5334	36.842475604899	1696
71	5355	36.859129871566	1541
71	5376	36.875783738233	1381
71	5397	36.8924497649	1373
71	5418	36.909113711567	1339
71	5439	36.925781418234	1352
71	5460	36.942444484901	1307
71	5481	36.959115071568	1356
71	5502	36.975785498235	1403
71	5523	36.992459124902	1490
71	5544	37.009130351569	1547
71	5588	42.637516719727	97
71	5618	44.981132549876	97
71	5633	47.390795792801	77
71	5678	52.103061760219	77
71	5708	57.57232926375	77
71	5753	62.818072265724	77
71	5783	68.441111513956	77
71	5801	72.436941865017	77
71	5833	77.768879366402	77
71	5848	83.108008107329	77
71	5863	87.054060586229	77
71	5878	91.242250002815	77
71	5893	96.497729759735	77
71	5915	101.336025100713	85
72	35	12.309334100505	56
72	75	15.938966484782	56
72	120	21.946053378015	56
72	150	25.958534546775	56
72	180	31.343867665864	56
72	3450	35.365839787305	80
72	5570	39.029959665998	80
72	5600	44.51342310966	80
72	5645	47.950217991835	56
72	5660	50.08527068547	56
72	5690	53.648661438673	56
72	5720	59.629040146028	56
72	5735	62.257133759249	56
72	5765	67.879864762206	56
72	5815	73.948332186915	64
75	63	12.809012751485	70
75	93	16.082211873425	70
75	108	19.253306755214	70
75	138	22.879080474393	70
75	168	28.180509675515	70
75	198	32.403245506079	70
75	222	32.809133951485	1585
75	243	32.825788298152	1431
75	264	32.842461284819	1510
75	285	32.859128671486	1519
75	306	32.875796938153	1539
75	327	32.89246640482	1574
75	348	32.909138111487	1637
75	369	32.925808458154	1683
75	390	32.942474644821	1677
75	411	32.959147791488	1758
75	432	32.975810938155	1714
75	453	32.992474244822	1672
75	474	33.009135311489	1602
75	495	33.025803738156	1624
75	516	33.042468404823	1599
75	537	33.05913371149	1582
75	558	33.075803018157	1615
75	579	33.092470164824	1621
75	600	33.109135631491	1606
75	621	33.125801258158	1593
75	642	33.142467604825	1589
75	663	33.159132991492	1573
75	684	33.175797658159	1548
75	705	33.192458564826	1476
75	726	33.209123471493	1454
75	747	33.22578893816	1439
75	768	33.242450084827	1370
75	789	33.259115471494	1354
75	810	33.275782778161	1362
75	831	33.292449284828	1360
75	852	33.309118191495	1388
75	873	33.325786298162	1406
75	894	33.342451204829	1384
75	915	33.359120991496	1423
75	936	33.375789498163	1446
75	957	33.39246120483	1509
75	978	33.409134751497	1595
75	999	33.425800378164	1582
75	1020	33.442465444831	1562
75	1041	33.459130991498	1548
75	1062	33.475798698165	1561
75	1083	33.492472404832	1649
75	1104	33.509137311499	1627
75	1125	33.525803418166	1620
75	1146	33.542472404833	1649
75	1167	33.5591380315	1636
75	1188	33.575799898167	1576
75	1209	33.592465204834	1559
75	1230	33.609131471501	1554
75	1251	33.625798538168	1559
75	1272	33.642467604835	1589
75	1293	33.659133391502	1578
75	1314	33.675806058169	1653
75	1335	33.692475044836	1682
75	1356	33.709130831503	1546
75	1377	33.72579477817	1512
75	1398	33.742461684837	1515
75	1419	33.759131871504	1559
75	1440	33.775795098171	1516
75	1461	33.792457044838	1457
75	1482	33.809127711505	1507
75	1503	33.825800138172	1579
75	1524	33.842469604839	1614
75	1545	33.859134991506	1598
75	1566	33.875805658173	1648
75	1587	33.89247208484	1645
75	1608	33.909136191507	1613
75	1629	33.925804218174	1630
75	1650	33.942470964841	1631
75	1671	33.959136751508	1620
75	1692	33.975800458175	1583
75	1713	33.992468724842	1603
75	1734	34.009136911509	1622
75	1755	34.025802618176	1610
75	1776	34.042479204843	1734
75	1797	34.05914083151	1671
75	1818	34.075802298177	1606
75	1839	34.092470884844	1630
75	1860	34.109138991511	1648
75	1881	34.125805658178	1648
75	1902	34.142479044845	1732
75	1923	34.159149951512	1785
75	1944	34.175813578179	1747
75	1965	34.192475284846	1685
75	1986	34.209141791513	1683
75	2007	34.22580653818	1659
75	2028	34.242479924847	1743
75	2049	34.259145311514	1727
75	2070	34.275808058181	1678
75	2091	34.292466484848	1575
75	2112	34.309136511515	1617
75	2133	34.325794218182	1505
75	2154	34.342463444849	1537
75	2175	34.359124751516	1470
75	2196	34.375789898183	1451
75	2217	34.39245920485	1484
75	2238	34.409119391517	1403
75	2259	34.425791018184	1465
75	2280	34.442452484851	1400
75	2301	34.459119631518	1406
75	2322	34.475785578185	1397
75	2343	34.492451284852	1385
75	2364	34.509115231519	1351
75	2385	34.525782298186	1356
75	2406	34.542448964853	1356
75	2427	34.55911499152	1348
75	2448	34.575785418187	1395
75	2469	34.592454404854	1424
75	2490	34.609121151521	1425
75	2511	34.625790618188	1460
75	2532	34.642459684855	1490
75	2553	34.659126831522	1496
75	2574	34.675794538189	1509
75	2595	34.692462884856	1530
75	2616	34.709129151523	1525
75	2637	34.72579533819	1519
75	2658	34.742458644857	1477
75	2679	34.759124271524	1464
75	2700	34.775792058191	1478
75	2721	34.792457444858	1462
75	2742	34.809127071525	1499
75	2763	34.825793018192	1490
75	2784	34.842457284859	1460
75	2805	34.859124031526	1461
75	2826	34.875794138193	1504
75	2847	34.89245912486	1483
75	2868	34.909126191527	1488
75	2889	34.925790378194	1457
75	2910	34.942456564861	1451
75	2931	34.959119631528	1406
75	2952	34.975784938195	1389
75	2973	34.992450484862	1375
75	2994	35.009113791529	1333
75	3015	35.025777418196	1295
75	3036	35.042442404863	1274
75	3057	35.05910459153	1218
75	3078	35.075771898197	1226
75	3099	35.092437364864	1211
75	3120	35.109102991531	1198
75	3141	35.125770138198	1204
75	3162	35.142438324865	1223
75	3183	35.159107631532	1256
75	3204	35.175775818199	1275
75	3225	35.192445604866	1314
75	3246	35.209116271533	1364
75	3267	35.2257850982	1391
75	3288	35.242462884867	1530
75	3309	35.259136431534	1616
75	3330	35.275802938201	1614
75	3351	35.292472244868	1647
75	3372	35.309133951535	1585
75	3393	35.325798778202	1562
75	3414	35.342469124869	1608
75	3435	35.359137951536	1635
75	3471	35.375803978203	1627
75	3492	35.39246920487	1609
75	3513	35.409137231537	1626
75	3534	35.425797338204	1544
75	3555	35.442462644871	1527
75	3576	35.459127551538	1505
75	3597	35.475790778205	1462
75	3618	35.492459924872	1493
75	3639	35.509123071539	1449
75	3660	35.525785978206	1402
75	3681	35.542455764873	1441
75	3702	35.55912899154	1523
75	3723	35.575794858207	1513
75	3744	35.592467604874	1589
75	3765	35.609133071541	1574
75	3786	35.625793018208	1490
75	3807	35.642460644875	1502
75	3828	35.659129391542	1528
75	3849	35.675794698209	1511
75	3870	35.692462644876	1527
75	3891	35.709132111543	1562
75	3912	35.72580413821	1629
75	3933	35.742474484877	1675
75	3954	35.759139231544	1651
75	3975	35.775806778211	1662
75	3996	35.792467364878	1586
75	4017	35.809133071545	1574
75	4038	35.825794378212	1507
75	4059	35.842471124879	1633
75	4080	35.859138591546	1643
75	4101	35.875803898213	1626
75	4122	35.89245784488	1467
75	4143	35.909120991547	1423
75	4164	35.925783818214	1375
75	4185	35.942452564881	1401
75	4206	35.959117551548	1380
75	4227	35.975784938215	1389
75	4248	35.992447764882	1341
75	4269	36.009114111549	1337
75	4290	36.025778778216	1312
75	4311	36.042445364883	1311
75	4332	36.05911251155	1317
75	4353	36.075777578217	1297
75	4374	36.092441124884	1258
75	4395	36.109104431551	1216
75	4416	36.125772938218	1239
75	4437	36.142436644885	1202
75	4458	36.159111951552	1310
75	4479	36.175782458219	1358
75	4500	36.192445524886	1313
75	4521	36.209110191553	1288
75	4542	36.22576997822	1202
75	4563	36.242438324887	1223
75	4584	36.259104431554	1216
75	4605	36.275772058221	1228
75	4626	36.292440804888	1254
75	4647	36.309110191555	1288
75	4668	36.325776938222	1289
75	4689	36.342447284889	1335
75	4710	36.359113231556	1326
75	4731	36.375783338223	1369
75	4752	36.39244968489	1365
75	4773	36.409112511557	1317
75	4794	36.425778538224	1309
75	4815	36.442443924891	1293
75	4836	36.459112591558	1318
75	4857	36.475781498225	1346
75	4878	36.492451204892	1384
75	4899	36.509117391559	1378
75	4920	36.525786378226	1407
75	4941	36.542450244893	1372
75	4962	36.55911555156	1355
75	4983	36.575781658227	1348
75	5004	36.592450404894	1374
75	5025	36.609118351561	1390
75	5046	36.625784538228	1384
75	5067	36.642452324895	1398
75	5088	36.659116751562	1370
75	5109	36.675783178229	1367
75	5130	36.692454564896	1426
75	5151	36.709124191563	1463
75	5172	36.72579741823	1545
75	5193	36.742474244897	1672
75	5214	36.759141311564	1677
75	5235	36.775792218231	1480
75	5253	36.786658816669	90
75	5271	36.792462804898	1529
75	5292	36.809128111565	1512
75	5313	36.825799978232	1577
75	5334	36.842475604899	1689
75	5355	36.859129871566	1534
75	5376	36.875783738233	1374
75	5397	36.8924497649	1366
75	5418	36.909113711567	1332
75	5439	36.925781418234	1345
75	5460	36.942444484901	1300
75	5481	36.959115071568	1349
75	5502	36.975785498235	1396
75	5523	36.992459124902	1483
75	5544	37.009130351569	1540
75	5588	42.637516719727	90
75	5618	44.981132549876	90
75	5633	47.390795792801	70
75	5678	52.103061760219	70
75	5708	57.57232926375	70
75	5753	62.818072265724	70
75	5783	68.441111513956	70
75	5801	72.436941865017	70
75	5833	77.768879366402	70
75	5848	83.108008107329	70
75	5863	87.054060586229	70
75	5878	91.242250002815	70
75	5893	96.497729759735	70
75	5915	101.336025100713	78
76	35	12.309334100505	49
76	75	15.938966484782	49
76	120	21.946053378015	49
76	150	25.958534546775	49
76	180	31.343867665864	49
76	3450	35.365839787305	73
76	5570	39.029959665998	73
76	5600	44.51342310966	73
76	5645	47.950217991835	49
76	5660	50.08527068547	49
76	5690	53.648661438673	49
76	5720	59.629040146028	49
76	5735	62.257133759249	49
76	5765	67.879864762206	49
76	5815	73.948332186915	57
