version 2
run General-0-20170324-18:37:22-3568
attr configname General
attr datetime 20170324-18:37:22
attr experiment General
attr inifile omnetpp.ini
attr iterationvars ""
attr iterationvars2 $repetition=0
attr measurement ""
attr network RTPUnicast1
attr processid 3568
attr repetition 0
attr replication #0
attr resultdir results
attr runnumber 0
attr seedset 0
param **.autoOutputFileNames true
param **.client.**.commonName "\"???\""
param **.payloadType 32
param **.server.fileName "\"./data/game.gdf\""
param **.sessionEnterDelay 10s
param **.sessionLeaveDelay 60s
param **.transmissionStartDelay 20s
param **.transmissionStopDelay 5s

vector 17  RTPUnicast1.client.ppp[0].queue  queueLength:vector  ETV
attr interpolationmode  sample-hold
attr title  "queue length, vector"
vector 18  RTPUnicast1.client.ppp[0].ppp  txState:vector  ETV
attr interpolationmode  sample-hold
attr title  "tx state, vector"
vector 42  RTPUnicast1.server.ppp[0].queue  queueLength:vector  ETV
attr interpolationmode  sample-hold
attr title  "queue length, vector"
vector 43  RTPUnicast1.server.ppp[0].ppp  txState:vector  ETV
attr interpolationmode  sample-hold
attr title  "tx state, vector"
vector 58  RTPUnicast1.router1.ppp[0].queue  queueLength:vector  ETV
attr interpolationmode  sample-hold
attr title  "queue length, vector"
vector 59  RTPUnicast1.router1.ppp[0].ppp  txState:vector  ETV
attr interpolationmode  sample-hold
attr title  "tx state, vector"
vector 69  RTPUnicast1.router1.ppp[1].queue  queueLength:vector  ETV
attr interpolationmode  sample-hold
attr title  "queue length, vector"
vector 70  RTPUnicast1.router1.ppp[1].ppp  txState:vector  ETV
attr interpolationmode  sample-hold
attr title  "tx state, vector"
vector 0  RTPUnicast1.client.udp  sentPk:vector(packetBytes)  ETV
attr interpolationmode  none
attr source  sentPk
attr title  "packets sent, vector(packetBytes)"
vector 14  RTPUnicast1.client.ppp[0].queue  rcvdPk:vector(packetBytes)  ETV
attr interpolationmode  none
attr title  "received packets, vector(packetBytes)"
vector 16  RTPUnicast1.client.ppp[0].queue  queueingTime:vector  ETV
attr interpolationmode  none
attr title  "queueing time, vector"
vector 23  RTPUnicast1.client.ppp[0].ppp  rcvdPkFromHL:vector(packetBytes)  ETV
attr interpolationmode  none
attr source  packetReceivedFromUpper
attr title  "packets received from higher layer, vector(packetBytes)"
vector 19  RTPUnicast1.client.ppp[0].ppp  txPk:vector(packetBytes)  ETV
attr interpolationmode  none
attr source  packetSentToLower
attr title  "packets transmitted, vector(packetBytes)"
vector 72  RTPUnicast1.router1.ppp[1].ppp  rxPkOk:vector(packetBytes)  ETV
attr interpolationmode  none
attr source  rxPkOk
attr title  "packets received OK, vector(packetBytes)"
vector 76  RTPUnicast1.router1.ppp[1].ppp  passedUpPk:vector(packetBytes)  ETV
attr interpolationmode  none
attr source  packetSentToUpper
attr title  "packets passed to higher layer, vector(packetBytes)"
vector 55  RTPUnicast1.router1.ppp[0].queue  rcvdPk:vector(packetBytes)  ETV
attr interpolationmode  none
attr title  "received packets, vector(packetBytes)"
vector 57  RTPUnicast1.router1.ppp[0].queue  queueingTime:vector  ETV
attr interpolationmode  none
attr title  "queueing time, vector"
vector 64  RTPUnicast1.router1.ppp[0].ppp  rcvdPkFromHL:vector(packetBytes)  ETV
attr interpolationmode  none
attr source  packetReceivedFromUpper
attr title  "packets received from higher layer, vector(packetBytes)"
vector 60  RTPUnicast1.router1.ppp[0].ppp  txPk:vector(packetBytes)  ETV
attr interpolationmode  none
attr source  packetSentToLower
attr title  "packets transmitted, vector(packetBytes)"
vector 45  RTPUnicast1.server.ppp[0].ppp  rxPkOk:vector(packetBytes)  ETV
attr interpolationmode  none
attr source  rxPkOk
attr title  "packets received OK, vector(packetBytes)"
vector 49  RTPUnicast1.server.ppp[0].ppp  passedUpPk:vector(packetBytes)  ETV
attr interpolationmode  none
attr source  packetSentToUpper
attr title  "packets passed to higher layer, vector(packetBytes)"
vector 26  RTPUnicast1.server.udp  rcvdPk:vector(packetBytes)  ETV
attr interpolationmode  none
attr source  rcvdPk
attr title  "packets received, vector(packetBytes)"
vector 27  RTPUnicast1.server.udp  passedUpPk:vector(count)  ETV
attr interpolationmode  none
attr title  "packets passed up, vector(count)"
vector 32  RTPUnicast1.server.rtcp  rcvdPk:vector(packetBytes)  ETV
attr interpolationmode  none
attr source  rcvdPk
attr title  "packets received, vector(packetBytes)"
vector 33  RTPUnicast1.server.rtcp  endToEndDelay:vector  ETV
attr interpolationmode  none
attr source  messageAge(rcvdPk)
attr title  "end-to-end delay, vector"
attr unit  s
vector 25  RTPUnicast1.server.udp  sentPk:vector(packetBytes)  ETV
attr interpolationmode  none
attr source  sentPk
attr title  "packets sent, vector(packetBytes)"
vector 39  RTPUnicast1.server.ppp[0].queue  rcvdPk:vector(packetBytes)  ETV
attr interpolationmode  none
attr title  "received packets, vector(packetBytes)"
vector 41  RTPUnicast1.server.ppp[0].queue  queueingTime:vector  ETV
attr interpolationmode  none
attr title  "queueing time, vector"
vector 48  RTPUnicast1.server.ppp[0].ppp  rcvdPkFromHL:vector(packetBytes)  ETV
attr interpolationmode  none
attr source  packetReceivedFromUpper
attr title  "packets received from higher layer, vector(packetBytes)"
vector 44  RTPUnicast1.server.ppp[0].ppp  txPk:vector(packetBytes)  ETV
attr interpolationmode  none
attr source  packetSentToLower
attr title  "packets transmitted, vector(packetBytes)"
vector 61  RTPUnicast1.router1.ppp[0].ppp  rxPkOk:vector(packetBytes)  ETV
attr interpolationmode  none
attr source  rxPkOk
attr title  "packets received OK, vector(packetBytes)"
vector 65  RTPUnicast1.router1.ppp[0].ppp  passedUpPk:vector(packetBytes)  ETV
attr interpolationmode  none
attr source  packetSentToUpper
attr title  "packets passed to higher layer, vector(packetBytes)"
vector 66  RTPUnicast1.router1.ppp[1].queue  rcvdPk:vector(packetBytes)  ETV
attr interpolationmode  none
attr title  "received packets, vector(packetBytes)"
vector 68  RTPUnicast1.router1.ppp[1].queue  queueingTime:vector  ETV
attr interpolationmode  none
attr title  "queueing time, vector"
vector 75  RTPUnicast1.router1.ppp[1].ppp  rcvdPkFromHL:vector(packetBytes)  ETV
attr interpolationmode  none
attr source  packetReceivedFromUpper
attr title  "packets received from higher layer, vector(packetBytes)"
vector 71  RTPUnicast1.router1.ppp[1].ppp  txPk:vector(packetBytes)  ETV
attr interpolationmode  none
attr source  packetSentToLower
attr title  "packets transmitted, vector(packetBytes)"
vector 20  RTPUnicast1.client.ppp[0].ppp  rxPkOk:vector(packetBytes)  ETV
attr interpolationmode  none
attr source  rxPkOk
attr title  "packets received OK, vector(packetBytes)"
vector 24  RTPUnicast1.client.ppp[0].ppp  passedUpPk:vector(packetBytes)  ETV
attr interpolationmode  none
attr source  packetSentToUpper
attr title  "packets passed to higher layer, vector(packetBytes)"
vector 1  RTPUnicast1.client.udp  rcvdPk:vector(packetBytes)  ETV
attr interpolationmode  none
attr source  rcvdPk
attr title  "packets received, vector(packetBytes)"
vector 2  RTPUnicast1.client.udp  passedUpPk:vector(count)  ETV
attr interpolationmode  none
attr title  "packets passed up, vector(count)"
vector 7  RTPUnicast1.client.rtcp  rcvdPk:vector(packetBytes)  ETV
attr interpolationmode  none
attr source  rcvdPk
attr title  "packets received, vector(packetBytes)"
vector 8  RTPUnicast1.client.rtcp  endToEndDelay:vector  ETV
attr interpolationmode  none
attr source  messageAge(rcvdPk)
attr title  "end-to-end delay, vector"
attr unit  s
vector 5  RTPUnicast1.client.rtp  rcvdPk:vector(packetBytes)  ETV
attr interpolationmode  none
attr source  rcvdPk
attr title  "packets received, vector(packetBytes)"
vector 6  RTPUnicast1.client.rtp  endToEndDelay:vector  ETV
attr interpolationmode  none
attr source  messageAge(rcvdPk)
attr title  "end-to-end delay, vector"
attr unit  s
0	29	12.309136991971	29
0	70	15.938769376248	29
0	115	21.945856269481	29
0	145	25.958337438241	29
0	175	31.34367055733	29
0	3445	35.365640758771	53
0	5565	39.029760637464	53
0	5595	44.513224081126	53
0	5640	47.950020883301	29
0	5655	50.085073576936	29
0	5685	53.648464330139	29
0	5715	59.628843037494	29
0	5730	62.256936650715	29
0	5760	67.879667653672	29
0	5808	73.948134438381	37
1	67	12.80928058582	28
1	97	16.08247970776	28
1	112	19.253574589549	28
1	142	22.879348308728	28
1	172	28.18077750985	28
1	202	32.403513340414	28
1	226	32.81173978582	1565
1	247	32.828160052487	1411
1	268	32.844953119154	1490
1	289	32.861634185821	1499
1	310	32.878332852488	1519
1	331	32.895055519155	1554
1	352	32.911822985822	1617
1	373	32.928563252489	1663
1	394	32.945220319156	1657
1	415	32.962016585823	1738
1	436	32.97861285249	1694
1	457	32.995212319157	1652
1	478	33.011766985824	1582
1	499	33.028468852491	1604
1	520	33.045095519158	1579
1	541	33.061734985825	1562
1	562	33.078454452492	1595
1	583	33.095130719159	1601
1	604	33.111773385826	1586
1	625	33.128419252493	1573
1	646	33.14507951916	1569
1	667	33.161720585827	1553
1	688	33.178347252494	1528
1	709	33.194898719161	1456
1	730	33.211530185828	1434
1	751	33.228172852495	1419
1	772	33.244729119162	1350
1	793	33.261370185829	1334
1	814	33.278049652496	1342
1	835	33.294713119163	1340
1	856	33.31142458583	1368
1	877	33.328120052497	1386
1	898	33.344751519164	1364
1	919	33.361480585831	1403
1	940	33.378184052498	1426
1	961	33.394951519165	1489
1	982	33.411755785832	1575
1	1003	33.428401652499	1562
1	1024	33.445036319166	1542
1	1045	33.461680585833	1528
1	1066	33.4783680525	1541
1	1087	33.495175519167	1629
1	1108	33.511806985834	1607
1	1129	33.528462452501	1600
1	1150	33.545175519168	1629
1	1171	33.561821385835	1616
1	1192	33.578392052502	1556
1	1213	33.595031519169	1539
1	1234	33.611690185836	1534
1	1255	33.628364852503	1539
1	1276	33.64507951917	1569
1	1297	33.661728585837	1558
1	1318	33.678515252504	1633
1	1339	33.695228319171	1662
1	1360	33.711677385838	1526
1	1381	33.728289652505	1492
1	1402	33.744961119172	1495
1	1423	33.761698185839	1539
1	1444	33.778296052506	1496
1	1465	33.794868319173	1437
1	1486	33.81161498584	1487
1	1507	33.828396852507	1559
1	1528	33.845119519174	1594
1	1549	33.861760585841	1578
1	1570	33.878507252508	1628
1	1591	33.895169119175	1625
1	1612	33.911784585842	1593
1	1633	33.928478452509	1610
1	1654	33.945146719176	1611
1	1675	33.961795785843	1600
1	1696	33.97840325251	1563
1	1717	33.995101919177	1583
1	1738	34.011798985844	1602
1	1759	34.028446452511	1590
1	1780	34.045311519178	1714
1	1801	34.061877385845	1651
1	1822	34.078440052512	1586
1	1843	34.095145119179	1610
1	1864	34.111840585846	1628
1	1885	34.128507252513	1628
1	1906	34.14530831918	1712
1	1927	34.162059785847	1765
1	1948	34.178665652514	1727
1	1969	34.195233119181	1665
1	1990	34.211896585848	1663
1	2011	34.228524852515	1639
1	2032	34.245325919182	1723
1	2053	34.261966985849	1707
1	2074	34.278555252516	1658
1	2095	34.295057119183	1555
1	2116	34.31179098585	1597
1	2137	34.328278452517	1485
1	2158	34.344996319184	1517
1	2179	34.361555785851	1450
1	2200	34.378192052518	1431
1	2221	34.394911519185	1464
1	2242	34.411448585852	1383
1	2263	34.428214452519	1445
1	2284	34.444777119186	1380
1	2305	34.461453385853	1386
1	2326	34.47810565252	1377
1	2347	34.494753119187	1365
1	2368	34.511365385854	1331
1	2389	34.528040052521	1336
1	2410	34.544706719188	1336
1	2431	34.561360585855	1328
1	2452	34.578102452522	1375
1	2473	34.594815519189	1404
1	2494	34.611483785856	1405
1	2515	34.628206452523	1440
1	2536	34.64492111919	1470
1	2557	34.661597385857	1476
1	2578	34.678284852524	1489
1	2599	34.694985119191	1510
1	2620	34.711643785858	1505
1	2641	34.728300852525	1499
1	2662	34.744900319192	1457
1	2683	34.761546185859	1444
1	2704	34.778235252526	1458
1	2725	34.794876319193	1442
1	2746	34.81160218586	1479
1	2767	34.828254452527	1470
1	2788	34.844873119194	1440
1	2809	34.861541385861	1441
1	2830	34.878276852528	1484
1	2851	34.894909919195	1463
1	2872	34.911584585862	1468
1	2893	34.928201652529	1437
1	2914	34.944858719196	1431
1	2935	34.961453385863	1386
1	2956	34.97809285253	1369
1	2977	34.994737119197	1355
1	2998	35.011336585864	1313
1	3019	35.027942452531	1275
1	3040	35.044575519198	1254
1	3061	35.061152585865	1198
1	3082	35.077832052532	1206
1	3103	35.094474719199	1191
1	3124	35.111120585866	1178
1	3145	35.127796852533	1184
1	3166	35.1444939192	1203
1	3187	35.161213385867	1236
1	3208	35.177910452534	1255
1	3229	35.194639519201	1294
1	3250	35.211386185868	1344
1	3271	35.228096052535	1371
1	3292	35.244985119202	1510
1	3313	35.261789385869	1596
1	3334	35.278452852536	1594
1	3355	35.295172319203	1627
1	3376	35.31173978587	1565
1	3397	35.328369652537	1542
1	3418	35.345109919204	1588
1	3439	35.361819785871	1615
1	3475	35.378473652538	1607
1	3496	35.395111519205	1589
1	3517	35.411805385872	1606
1	3538	35.428340852539	1524
1	3559	35.444980319206	1507
1	3580	35.461611785873	1485
1	3601	35.47820965254	1442
1	3622	35.494925919207	1473
1	3643	35.511522185874	1429
1	3664	35.528113652541	1382
1	3685	35.544842719208	1421
1	3706	35.561640585875	1503
1	3727	35.578291252542	1493
1	3748	35.595079519209	1569
1	3769	35.611722185876	1554
1	3790	35.628254452543	1470
1	3811	35.64494031921	1482
1	3832	35.661648585877	1508
1	3853	35.678288052544	1491
1	3874	35.694980319211	1507
1	3895	35.711702985878	1542
1	3916	35.728476852545	1609
1	3937	35.745217119212	1655
1	3958	35.761845385879	1631
1	3979	35.778529652546	1642
1	4000	35.795074719213	1566
1	4021	35.81172218588	1554
1	4042	35.828281652547	1487
1	4063	35.845149919214	1613
1	4084	35.861832585881	1623
1	4105	35.878472052548	1606
1	4126	35.894884319215	1447
1	4147	35.911480585882	1403
1	4168	35.928070452549	1355
1	4189	35.944778719216	1381
1	4210	35.961411785883	1360
1	4231	35.97809285255	1369
1	4252	35.994682719217	1321
1	4273	36.011342985884	1317
1	4294	36.027969652551	1292
1	4315	36.044634719218	1291
1	4336	36.061310985885	1297
1	4357	36.077945652552	1277
1	4378	36.094549919219	1238
1	4399	36.111149385886	1196
1	4420	36.127852852553	1219
1	4441	36.14446031922	1182
1	4462	36.161299785887	1290
1	4483	36.178043252554	1338
1	4504	36.194637919221	1293
1	4525	36.211264585888	1268
1	4546	36.227793652555	1182
1	4567	36.244493919222	1203
1	4588	36.261149385889	1196
1	4609	36.277835252556	1208
1	4630	36.294543519223	1234
1	4651	36.31126458589	1268
1	4672	36.327932852557	1269
1	4693	36.344673119224	1315
1	4714	36.361325385891	1306
1	4735	36.378060852558	1349
1	4756	36.394721119225	1345
1	4777	36.411310985892	1297
1	4798	36.427964852559	1289
1	4819	36.444605919226	1273
1	4840	36.461312585893	1298
1	4861	36.47802405256	1326
1	4882	36.494751519227	1364
1	4903	36.511408585894	1358
1	4924	36.528121652561	1387
1	4945	36.544732319228	1352
1	4966	36.561371785895	1335
1	4987	36.578027252562	1328
1	5008	36.594735519229	1354
1	5029	36.611427785896	1370
1	5050	36.628084852563	1364
1	5071	36.64477391923	1378
1	5092	36.661395785897	1350
1	5113	36.678057652564	1347
1	5134	36.694818719231	1406
1	5155	36.711544585898	1443
1	5176	36.728342452565	1525
1	5197	36.745212319232	1652
1	5218	36.761886985899	1657
1	5239	36.778238452566	1460
1	5257	36.786957051004	48
1	5275	36.794983519233	1509
1	5296	36.8116229859	1492
1	5317	36.828393652567	1557
1	5338	36.845239519234	1669
1	5359	36.861658185901	1514
1	5380	36.878068852568	1354
1	5401	36.894722719235	1346
1	5422	36.911334985902	1312
1	5443	36.928022452569	1325
1	5464	36.944617119236	1280
1	5485	36.961362185903	1329
1	5506	36.97810405257	1376
1	5527	36.994909919237	1463
1	5548	37.011667785904	1520
1	5592	42.637814954062	48
1	5622	44.981430784211	48
1	5637	47.391063627136	28
1	5682	52.103329594554	28
1	5712	57.572597098085	28
1	5757	62.818340100059	28
1	5787	68.441379348291	28
1	5805	72.437209699352	28
1	5837	77.769147200737	28
1	5852	83.108275941664	28
1	5867	87.054328420564	28
1	5882	91.24251783715	28
1	5897	96.49799759407	28
1	5919	101.336305095048	36
2	67	12.80928058582	1
2	97	16.08247970776	2
2	112	19.253574589549	3
2	142	22.879348308728	4
2	172	28.18077750985	5
2	202	32.403513340414	6
2	226	32.81173978582	7
2	247	32.828160052487	8
2	268	32.844953119154	9
2	289	32.861634185821	10
2	310	32.878332852488	11
2	331	32.895055519155	12
2	352	32.911822985822	13
2	373	32.928563252489	14
2	394	32.945220319156	15
2	415	32.962016585823	16
2	436	32.97861285249	17
2	457	32.995212319157	18
2	478	33.011766985824	19
2	499	33.028468852491	20
2	520	33.045095519158	21
2	541	33.061734985825	22
2	562	33.078454452492	23
2	583	33.095130719159	24
2	604	33.111773385826	25
2	625	33.128419252493	26
2	646	33.14507951916	27
2	667	33.161720585827	28
2	688	33.178347252494	29
2	709	33.194898719161	30
2	730	33.211530185828	31
2	751	33.228172852495	32
2	772	33.244729119162	33
2	793	33.261370185829	34
2	814	33.278049652496	35
2	835	33.294713119163	36
2	856	33.31142458583	37
2	877	33.328120052497	38
2	898	33.344751519164	39
2	919	33.361480585831	40
2	940	33.378184052498	41
2	961	33.394951519165	42
2	982	33.411755785832	43
2	1003	33.428401652499	44
2	1024	33.445036319166	45
2	1045	33.461680585833	46
2	1066	33.4783680525	47
2	1087	33.495175519167	48
2	1108	33.511806985834	49
2	1129	33.528462452501	50
2	1150	33.545175519168	51
2	1171	33.561821385835	52
2	1192	33.578392052502	53
2	1213	33.595031519169	54
2	1234	33.611690185836	55
2	1255	33.628364852503	56
2	1276	33.64507951917	57
2	1297	33.661728585837	58
2	1318	33.678515252504	59
2	1339	33.695228319171	60
2	1360	33.711677385838	61
2	1381	33.728289652505	62
2	1402	33.744961119172	63
2	1423	33.761698185839	64
2	1444	33.778296052506	65
2	1465	33.794868319173	66
2	1486	33.81161498584	67
2	1507	33.828396852507	68
2	1528	33.845119519174	69
2	1549	33.861760585841	70
2	1570	33.878507252508	71
2	1591	33.895169119175	72
2	1612	33.911784585842	73
2	1633	33.928478452509	74
2	1654	33.945146719176	75
2	1675	33.961795785843	76
2	1696	33.97840325251	77
2	1717	33.995101919177	78
2	1738	34.011798985844	79
2	1759	34.028446452511	80
2	1780	34.045311519178	81
2	1801	34.061877385845	82
2	1822	34.078440052512	83
2	1843	34.095145119179	84
2	1864	34.111840585846	85
2	1885	34.128507252513	86
2	1906	34.14530831918	87
2	1927	34.162059785847	88
2	1948	34.178665652514	89
2	1969	34.195233119181	90
2	1990	34.211896585848	91
2	2011	34.228524852515	92
2	2032	34.245325919182	93
2	2053	34.261966985849	94
2	2074	34.278555252516	95
2	2095	34.295057119183	96
2	2116	34.31179098585	97
2	2137	34.328278452517	98
2	2158	34.344996319184	99
2	2179	34.361555785851	100
2	2200	34.378192052518	101
2	2221	34.394911519185	102
2	2242	34.411448585852	103
2	2263	34.428214452519	104
2	2284	34.444777119186	105
2	2305	34.461453385853	106
2	2326	34.47810565252	107
2	2347	34.494753119187	108
2	2368	34.511365385854	109
2	2389	34.528040052521	110
2	2410	34.544706719188	111
2	2431	34.561360585855	112
2	2452	34.578102452522	113
2	2473	34.594815519189	114
2	2494	34.611483785856	115
2	2515	34.628206452523	116
2	2536	34.64492111919	117
2	2557	34.661597385857	118
2	2578	34.678284852524	119
2	2599	34.694985119191	120
2	2620	34.711643785858	121
2	2641	34.728300852525	122
2	2662	34.744900319192	123
2	2683	34.761546185859	124
2	2704	34.778235252526	125
2	2725	34.794876319193	126
2	2746	34.81160218586	127
2	2767	34.828254452527	128
2	2788	34.844873119194	129
2	2809	34.861541385861	130
2	2830	34.878276852528	131
2	2851	34.894909919195	132
2	2872	34.911584585862	133
2	2893	34.928201652529	134
2	2914	34.944858719196	135
2	2935	34.961453385863	136
2	2956	34.97809285253	137
2	2977	34.994737119197	138
2	2998	35.011336585864	139
2	3019	35.027942452531	140
2	3040	35.044575519198	141
2	3061	35.061152585865	142
2	3082	35.077832052532	143
2	3103	35.094474719199	144
2	3124	35.111120585866	145
2	3145	35.127796852533	146
2	3166	35.1444939192	147
2	3187	35.161213385867	148
2	3208	35.177910452534	149
2	3229	35.194639519201	150
2	3250	35.211386185868	151
2	3271	35.228096052535	152
2	3292	35.244985119202	153
2	3313	35.261789385869	154
2	3334	35.278452852536	155
2	3355	35.295172319203	156
2	3376	35.31173978587	157
2	3397	35.328369652537	158
2	3418	35.345109919204	159
2	3439	35.361819785871	160
2	3475	35.378473652538	161
2	3496	35.395111519205	162
2	3517	35.411805385872	163
2	3538	35.428340852539	164
2	3559	35.444980319206	165
2	3580	35.461611785873	166
2	3601	35.47820965254	167
2	3622	35.494925919207	168
2	3643	35.511522185874	169
2	3664	35.528113652541	170
2	3685	35.544842719208	171
2	3706	35.561640585875	172
2	3727	35.578291252542	173
2	3748	35.595079519209	174
2	3769	35.611722185876	175
2	3790	35.628254452543	176
2	3811	35.64494031921	177
2	3832	35.661648585877	178
2	3853	35.678288052544	179
2	3874	35.694980319211	180
2	3895	35.711702985878	181
2	3916	35.728476852545	182
2	3937	35.745217119212	183
2	3958	35.761845385879	184
2	3979	35.778529652546	185
2	4000	35.795074719213	186
2	4021	35.81172218588	187
2	4042	35.828281652547	188
2	4063	35.845149919214	189
2	4084	35.861832585881	190
2	4105	35.878472052548	191
2	4126	35.894884319215	192
2	4147	35.911480585882	193
2	4168	35.928070452549	194
2	4189	35.944778719216	195
2	4210	35.961411785883	196
2	4231	35.97809285255	197
2	4252	35.994682719217	198
2	4273	36.011342985884	199
2	4294	36.027969652551	200
2	4315	36.044634719218	201
2	4336	36.061310985885	202
2	4357	36.077945652552	203
2	4378	36.094549919219	204
2	4399	36.111149385886	205
2	4420	36.127852852553	206
2	4441	36.14446031922	207
2	4462	36.161299785887	208
2	4483	36.178043252554	209
2	4504	36.194637919221	210
2	4525	36.211264585888	211
2	4546	36.227793652555	212
2	4567	36.244493919222	213
2	4588	36.261149385889	214
2	4609	36.277835252556	215
2	4630	36.294543519223	216
2	4651	36.31126458589	217
2	4672	36.327932852557	218
2	4693	36.344673119224	219
2	4714	36.361325385891	220
2	4735	36.378060852558	221
2	4756	36.394721119225	222
2	4777	36.411310985892	223
2	4798	36.427964852559	224
2	4819	36.444605919226	225
2	4840	36.461312585893	226
2	4861	36.47802405256	227
2	4882	36.494751519227	228
2	4903	36.511408585894	229
2	4924	36.528121652561	230
2	4945	36.544732319228	231
2	4966	36.561371785895	232
2	4987	36.578027252562	233
2	5008	36.594735519229	234
2	5029	36.611427785896	235
2	5050	36.628084852563	236
2	5071	36.64477391923	237
2	5092	36.661395785897	238
2	5113	36.678057652564	239
2	5134	36.694818719231	240
2	5155	36.711544585898	241
2	5176	36.728342452565	242
2	5197	36.745212319232	243
2	5218	36.761886985899	244
2	5239	36.778238452566	245
2	5257	36.786957051004	246
2	5275	36.794983519233	247
2	5296	36.8116229859	248
2	5317	36.828393652567	249
2	5338	36.845239519234	250
2	5359	36.861658185901	251
2	5380	36.878068852568	252
2	5401	36.894722719235	253
2	5422	36.911334985902	254
2	5443	36.928022452569	255
2	5464	36.944617119236	256
2	5485	36.961362185903	257
2	5506	36.97810405257	258
2	5527	36.994909919237	259
2	5548	37.011667785904	260
2	5592	42.637814954062	261
2	5622	44.981430784211	262
2	5637	47.391063627136	263
2	5682	52.103329594554	264
2	5712	57.572597098085	265
2	5757	62.818340100059	266
2	5787	68.441379348291	267
2	5805	72.437209699352	268
2	5837	77.769147200737	269
2	5852	83.108275941664	270
2	5867	87.054328420564	271
2	5882	91.24251783715	272
2	5897	96.49799759407	273
2	5919	101.336305095048	274
5	227	32.81173978582	1557
5	248	32.828160052487	1403
5	269	32.844953119154	1482
5	290	32.861634185821	1491
5	311	32.878332852488	1511
5	332	32.895055519155	1546
5	353	32.911822985822	1609
5	374	32.928563252489	1655
5	395	32.945220319156	1649
5	416	32.962016585823	1730
5	437	32.97861285249	1686
5	458	32.995212319157	1644
5	479	33.011766985824	1574
5	500	33.028468852491	1596
5	521	33.045095519158	1571
5	542	33.061734985825	1554
5	563	33.078454452492	1587
5	584	33.095130719159	1593
5	605	33.111773385826	1578
5	626	33.128419252493	1565
5	647	33.14507951916	1561
5	668	33.161720585827	1545
5	689	33.178347252494	1520
5	710	33.194898719161	1448
5	731	33.211530185828	1426
5	752	33.228172852495	1411
5	773	33.244729119162	1342
5	794	33.261370185829	1326
5	815	33.278049652496	1334
5	836	33.294713119163	1332
5	857	33.31142458583	1360
5	878	33.328120052497	1378
5	899	33.344751519164	1356
5	920	33.361480585831	1395
5	941	33.378184052498	1418
5	962	33.394951519165	1481
5	983	33.411755785832	1567
5	1004	33.428401652499	1554
5	1025	33.445036319166	1534
5	1046	33.461680585833	1520
5	1067	33.4783680525	1533
5	1088	33.495175519167	1621
5	1109	33.511806985834	1599
5	1130	33.528462452501	1592
5	1151	33.545175519168	1621
5	1172	33.561821385835	1608
5	1193	33.578392052502	1548
5	1214	33.595031519169	1531
5	1235	33.611690185836	1526
5	1256	33.628364852503	1531
5	1277	33.64507951917	1561
5	1298	33.661728585837	1550
5	1319	33.678515252504	1625
5	1340	33.695228319171	1654
5	1361	33.711677385838	1518
5	1382	33.728289652505	1484
5	1403	33.744961119172	1487
5	1424	33.761698185839	1531
5	1445	33.778296052506	1488
5	1466	33.794868319173	1429
5	1487	33.81161498584	1479
5	1508	33.828396852507	1551
5	1529	33.845119519174	1586
5	1550	33.861760585841	1570
5	1571	33.878507252508	1620
5	1592	33.895169119175	1617
5	1613	33.911784585842	1585
5	1634	33.928478452509	1602
5	1655	33.945146719176	1603
5	1676	33.961795785843	1592
5	1697	33.97840325251	1555
5	1718	33.995101919177	1575
5	1739	34.011798985844	1594
5	1760	34.028446452511	1582
5	1781	34.045311519178	1706
5	1802	34.061877385845	1643
5	1823	34.078440052512	1578
5	1844	34.095145119179	1602
5	1865	34.111840585846	1620
5	1886	34.128507252513	1620
5	1907	34.14530831918	1704
5	1928	34.162059785847	1757
5	1949	34.178665652514	1719
5	1970	34.195233119181	1657
5	1991	34.211896585848	1655
5	2012	34.228524852515	1631
5	2033	34.245325919182	1715
5	2054	34.261966985849	1699
5	2075	34.278555252516	1650
5	2096	34.295057119183	1547
5	2117	34.31179098585	1589
5	2138	34.328278452517	1477
5	2159	34.344996319184	1509
5	2180	34.361555785851	1442
5	2201	34.378192052518	1423
5	2222	34.394911519185	1456
5	2243	34.411448585852	1375
5	2264	34.428214452519	1437
5	2285	34.444777119186	1372
5	2306	34.461453385853	1378
5	2327	34.47810565252	1369
5	2348	34.494753119187	1357
5	2369	34.511365385854	1323
5	2390	34.528040052521	1328
5	2411	34.544706719188	1328
5	2432	34.561360585855	1320
5	2453	34.578102452522	1367
5	2474	34.594815519189	1396
5	2495	34.611483785856	1397
5	2516	34.628206452523	1432
5	2537	34.64492111919	1462
5	2558	34.661597385857	1468
5	2579	34.678284852524	1481
5	2600	34.694985119191	1502
5	2621	34.711643785858	1497
5	2642	34.728300852525	1491
5	2663	34.744900319192	1449
5	2684	34.761546185859	1436
5	2705	34.778235252526	1450
5	2726	34.794876319193	1434
5	2747	34.81160218586	1471
5	2768	34.828254452527	1462
5	2789	34.844873119194	1432
5	2810	34.861541385861	1433
5	2831	34.878276852528	1476
5	2852	34.894909919195	1455
5	2873	34.911584585862	1460
5	2894	34.928201652529	1429
5	2915	34.944858719196	1423
5	2936	34.961453385863	1378
5	2957	34.97809285253	1361
5	2978	34.994737119197	1347
5	2999	35.011336585864	1305
5	3020	35.027942452531	1267
5	3041	35.044575519198	1246
5	3062	35.061152585865	1190
5	3083	35.077832052532	1198
5	3104	35.094474719199	1183
5	3125	35.111120585866	1170
5	3146	35.127796852533	1176
5	3167	35.1444939192	1195
5	3188	35.161213385867	1228
5	3209	35.177910452534	1247
5	3230	35.194639519201	1286
5	3251	35.211386185868	1336
5	3272	35.228096052535	1363
5	3293	35.244985119202	1502
5	3314	35.261789385869	1588
5	3335	35.278452852536	1586
5	3356	35.295172319203	1619
5	3377	35.31173978587	1557
5	3398	35.328369652537	1534
5	3419	35.345109919204	1580
5	3440	35.361819785871	1607
5	3476	35.378473652538	1599
5	3497	35.395111519205	1581
5	3518	35.411805385872	1598
5	3539	35.428340852539	1516
5	3560	35.444980319206	1499
5	3581	35.461611785873	1477
5	3602	35.47820965254	1434
5	3623	35.494925919207	1465
5	3644	35.511522185874	1421
5	3665	35.528113652541	1374
5	3686	35.544842719208	1413
5	3707	35.561640585875	1495
5	3728	35.578291252542	1485
5	3749	35.595079519209	1561
5	3770	35.611722185876	1546
5	3791	35.628254452543	1462
5	3812	35.64494031921	1474
5	3833	35.661648585877	1500
5	3854	35.678288052544	1483
5	3875	35.694980319211	1499
5	3896	35.711702985878	1534
5	3917	35.728476852545	1601
5	3938	35.745217119212	1647
5	3959	35.761845385879	1623
5	3980	35.778529652546	1634
5	4001	35.795074719213	1558
5	4022	35.81172218588	1546
5	4043	35.828281652547	1479
5	4064	35.845149919214	1605
5	4085	35.861832585881	1615
5	4106	35.878472052548	1598
5	4127	35.894884319215	1439
5	4148	35.911480585882	1395
5	4169	35.928070452549	1347
5	4190	35.944778719216	1373
5	4211	35.961411785883	1352
5	4232	35.97809285255	1361
5	4253	35.994682719217	1313
5	4274	36.011342985884	1309
5	4295	36.027969652551	1284
5	4316	36.044634719218	1283
5	4337	36.061310985885	1289
5	4358	36.077945652552	1269
5	4379	36.094549919219	1230
5	4400	36.111149385886	1188
5	4421	36.127852852553	1211
5	4442	36.14446031922	1174
5	4463	36.161299785887	1282
5	4484	36.178043252554	1330
5	4505	36.194637919221	1285
5	4526	36.211264585888	1260
5	4547	36.227793652555	1174
5	4568	36.244493919222	1195
5	4589	36.261149385889	1188
5	4610	36.277835252556	1200
5	4631	36.294543519223	1226
5	4652	36.31126458589	1260
5	4673	36.327932852557	1261
5	4694	36.344673119224	1307
5	4715	36.361325385891	1298
5	4736	36.378060852558	1341
5	4757	36.394721119225	1337
5	4778	36.411310985892	1289
5	4799	36.427964852559	1281
5	4820	36.444605919226	1265
5	4841	36.461312585893	1290
5	4862	36.47802405256	1318
5	4883	36.494751519227	1356
5	4904	36.511408585894	1350
5	4925	36.528121652561	1379
5	4946	36.544732319228	1344
5	4967	36.561371785895	1327
5	4988	36.578027252562	1320
5	5009	36.594735519229	1346
5	5030	36.611427785896	1362
5	5051	36.628084852563	1356
5	5072	36.64477391923	1370
5	5093	36.661395785897	1342
5	5114	36.678057652564	1339
5	5135	36.694818719231	1398
5	5156	36.711544585898	1435
5	5177	36.728342452565	1517
5	5198	36.745212319232	1644
5	5219	36.761886985899	1649
5	5240	36.778238452566	1452
5	5276	36.794983519233	1501
5	5297	36.8116229859	1484
5	5318	36.828393652567	1549
5	5339	36.845239519234	1661
5	5360	36.861658185901	1506
5	5381	36.878068852568	1346
5	5402	36.894722719235	1338
5	5423	36.911334985902	1304
5	5444	36.928022452569	1317
5	5465	36.944617119236	1272
5	5486	36.961362185903	1321
5	5507	36.97810405257	1368
5	5528	36.994909919237	1455
5	5549	37.011667785904	1512
6	227	32.81173978582	0.002830544826
6	248	32.828160052487	0.002584144826
6	269	32.844953119154	0.002710544826
6	290	32.861634185821	0.002724944826
6	311	32.878332852488	0.002756944826
6	332	32.895055519155	0.002812944826
6	353	32.911822985822	0.002913744826
6	374	32.928563252489	0.002987344826
6	395	32.945220319156	0.002977744826
6	416	32.962016585823	0.003107344826
6	437	32.97861285249	0.003036944826
6	458	32.995212319157	0.002969744826
6	479	33.011766985824	0.002857744826
6	500	33.028468852491	0.002892944826
6	521	33.045095519158	0.002852944826
6	542	33.061734985825	0.002825744826
6	563	33.078454452492	0.002878544826
6	584	33.095130719159	0.002888144826
6	605	33.111773385826	0.002864144826
6	626	33.128419252493	0.002843344826
6	647	33.14507951916	0.002836944826
6	668	33.161720585827	0.002811344826
6	689	33.178347252494	0.002771344826
6	710	33.194898719161	0.002656144826
6	731	33.211530185828	0.002620944826
6	752	33.228172852495	0.002596944826
6	773	33.244729119162	0.002486544826
6	794	33.261370185829	0.002460944826
6	815	33.278049652496	0.002473744826
6	836	33.294713119163	0.002470544826
6	857	33.31142458583	0.002515344826
6	878	33.328120052497	0.002544144826
6	899	33.344751519164	0.002508944826
6	920	33.361480585831	0.002571344826
6	941	33.378184052498	0.002608144826
6	962	33.394951519165	0.002708944826
6	983	33.411755785832	0.002846544826
6	1004	33.428401652499	0.002825744826
6	1025	33.445036319166	0.002793744826
6	1046	33.461680585833	0.002771344826
6	1067	33.4783680525	0.002792144826
6	1088	33.495175519167	0.002932944826
6	1109	33.511806985834	0.002897744826
6	1130	33.528462452501	0.002886544826
6	1151	33.545175519168	0.002932944826
6	1172	33.561821385835	0.002912144826
6	1193	33.578392052502	0.002816144826
6	1214	33.595031519169	0.002788944826
6	1235	33.611690185836	0.002780944826
6	1256	33.628364852503	0.002788944826
6	1277	33.64507951917	0.002836944826
6	1298	33.661728585837	0.002819344826
6	1319	33.678515252504	0.002939344826
6	1340	33.695228319171	0.002985744826
6	1361	33.711677385838	0.002768144826
6	1382	33.728289652505	0.002713744826
6	1403	33.744961119172	0.002718544826
6	1424	33.761698185839	0.002788944826
6	1445	33.778296052506	0.002720144826
6	1466	33.794868319173	0.002625744826
6	1487	33.81161498584	0.002705744826
6	1508	33.828396852507	0.002820944826
6	1529	33.845119519174	0.002876944826
6	1550	33.861760585841	0.002851344826
6	1571	33.878507252508	0.002931344826
6	1592	33.895169119175	0.002926544826
6	1613	33.911784585842	0.002875344826
6	1634	33.928478452509	0.002902544826
6	1655	33.945146719176	0.002904144826
6	1676	33.961795785843	0.002886544826
6	1697	33.97840325251	0.002827344826
6	1718	33.995101919177	0.002859344826
6	1739	34.011798985844	0.002889744826
6	1760	34.028446452511	0.002870544826
6	1781	34.045311519178	0.003068944826
6	1802	34.061877385845	0.002968144826
6	1823	34.078440052512	0.002864144826
6	1844	34.095145119179	0.002902544826
6	1865	34.111840585846	0.002931344826
6	1886	34.128507252513	0.002931344826
6	1907	34.14530831918	0.003065744826
6	1928	34.162059785847	0.003150544826
6	1949	34.178665652514	0.003089744826
6	1970	34.195233119181	0.002990544826
6	1991	34.211896585848	0.002987344826
6	2012	34.228524852515	0.002948944826
6	2033	34.245325919182	0.003083344826
6	2054	34.261966985849	0.003057744826
6	2075	34.278555252516	0.002979344826
6	2096	34.295057119183	0.002814544826
6	2117	34.31179098585	0.002881744826
6	2138	34.328278452517	0.002702544826
6	2159	34.344996319184	0.002753744826
6	2180	34.361555785851	0.002646544826
6	2201	34.378192052518	0.002616144826
6	2222	34.394911519185	0.002668944826
6	2243	34.411448585852	0.002539344826
6	2264	34.428214452519	0.002638544826
6	2285	34.444777119186	0.002534544826
6	2306	34.461453385853	0.002544144826
6	2327	34.47810565252	0.002529744826
6	2348	34.494753119187	0.002510544826
6	2369	34.511365385854	0.002456144826
6	2390	34.528040052521	0.002464144826
6	2411	34.544706719188	0.002464144826
6	2432	34.561360585855	0.002451344826
6	2453	34.578102452522	0.002526544826
6	2474	34.594815519189	0.002572944826
6	2495	34.611483785856	0.002574544826
6	2516	34.628206452523	0.002630544826
6	2537	34.64492111919	0.002678544826
6	2558	34.661597385857	0.002688144826
6	2579	34.678284852524	0.002708944826
6	2600	34.694985119191	0.002742544826
6	2621	34.711643785858	0.002734544826
6	2642	34.728300852525	0.002724944826
6	2663	34.744900319192	0.002657744826
6	2684	34.761546185859	0.002636944826
6	2705	34.778235252526	0.002659344826
6	2726	34.794876319193	0.002633744826
6	2747	34.81160218586	0.002692944826
6	2768	34.828254452527	0.002678544826
6	2789	34.844873119194	0.002630544826
6	2810	34.861541385861	0.002632144826
6	2831	34.878276852528	0.002700944826
6	2852	34.894909919195	0.002667344826
6	2873	34.911584585862	0.002675344826
6	2894	34.928201652529	0.002625744826
6	2915	34.944858719196	0.002616144826
6	2936	34.961453385863	0.002544144826
6	2957	34.97809285253	0.002516944826
6	2978	34.994737119197	0.002494544826
6	2999	35.011336585864	0.002427344826
6	3020	35.027942452531	0.002366544826
6	3041	35.044575519198	0.002332944826
6	3062	35.061152585865	0.002243344826
6	3083	35.077832052532	0.002256144826
6	3104	35.094474719199	0.002232144826
6	3125	35.111120585866	0.002211344826
6	3146	35.127796852533	0.002220944826
6	3167	35.1444939192	0.002251344826
6	3188	35.161213385867	0.002304144826
6	3209	35.177910452534	0.002334544826
6	3230	35.194639519201	0.002396944826
6	3251	35.211386185868	0.002476944826
6	3272	35.228096052535	0.002520144826
6	3293	35.244985119202	0.002742544826
6	3314	35.261789385869	0.002880144826
6	3335	35.278452852536	0.002876944826
6	3356	35.295172319203	0.002929744826
6	3377	35.31173978587	0.002830544826
6	3398	35.328369652537	0.002793744826
6	3419	35.345109919204	0.002867344826
6	3440	35.361819785871	0.002910544826
6	3476	35.378473652538	0.002897744826
6	3497	35.395111519205	0.002868944826
6	3518	35.411805385872	0.002896144826
6	3539	35.428340852539	0.002764944826
6	3560	35.444980319206	0.002737744826
6	3581	35.461611785873	0.002702544826
6	3602	35.47820965254	0.002633744826
6	3623	35.494925919207	0.002683344826
6	3644	35.511522185874	0.002612944826
6	3665	35.528113652541	0.002537744826
6	3686	35.544842719208	0.002600144826
6	3707	35.561640585875	0.002731344826
6	3728	35.578291252542	0.002715344826
6	3749	35.595079519209	0.002836944826
6	3770	35.611722185876	0.002812944826
6	3791	35.628254452543	0.002678544826
6	3812	35.64494031921	0.002697744826
6	3833	35.661648585877	0.002739344826
6	3854	35.678288052544	0.002712144826
6	3875	35.694980319211	0.002737744826
6	3896	35.711702985878	0.002793744826
6	3917	35.728476852545	0.002900944826
6	3938	35.745217119212	0.002974544826
6	3959	35.761845385879	0.002936144826
6	3980	35.778529652546	0.002953744826
6	4001	35.795074719213	0.002832144826
6	4022	35.81172218588	0.002812944826
6	4043	35.828281652547	0.002705744826
6	4064	35.845149919214	0.002907344826
6	4085	35.861832585881	0.002923344826
6	4106	35.878472052548	0.002896144826
6	4127	35.894884319215	0.002641744826
6	4148	35.911480585882	0.002571344826
6	4169	35.928070452549	0.002494544826
6	4190	35.944778719216	0.002536144826
6	4211	35.961411785883	0.002502544826
6	4232	35.97809285255	0.002516944826
6	4253	35.994682719217	0.002440144826
6	4274	36.011342985884	0.002433744826
6	4295	36.027969652551	0.002393744826
6	4316	36.044634719218	0.002392144826
6	4337	36.061310985885	0.002401744826
6	4358	36.077945652552	0.002369744826
6	4379	36.094549919219	0.002307344826
6	4400	36.111149385886	0.002240144826
6	4421	36.127852852553	0.002276944826
6	4442	36.14446031922	0.002217744826
6	4463	36.161299785887	0.002390544826
6	4484	36.178043252554	0.002467344826
6	4505	36.194637919221	0.002395344826
6	4526	36.211264585888	0.002355344826
6	4547	36.227793652555	0.002217744826
6	4568	36.244493919222	0.002251344826
6	4589	36.261149385889	0.002240144826
6	4610	36.277835252556	0.002259344826
6	4631	36.294543519223	0.002300944826
6	4652	36.31126458589	0.002355344826
6	4673	36.327932852557	0.002356944826
6	4694	36.344673119224	0.002430544826
6	4715	36.361325385891	0.002416144826
6	4736	36.378060852558	0.002484944826
6	4757	36.394721119225	0.002478544826
6	4778	36.411310985892	0.002401744826
6	4799	36.427964852559	0.002388944826
6	4820	36.444605919226	0.002363344826
6	4841	36.461312585893	0.002403344826
6	4862	36.47802405256	0.002448144826
6	4883	36.494751519227	0.002508944826
6	4904	36.511408585894	0.002499344826
6	4925	36.528121652561	0.002545744826
6	4946	36.544732319228	0.002489744826
6	4967	36.561371785895	0.002462544826
6	4988	36.578027252562	0.002451344826
6	5009	36.594735519229	0.002492944826
6	5030	36.611427785896	0.002518544826
6	5051	36.628084852563	0.002508944826
6	5072	36.64477391923	0.002531344826
6	5093	36.661395785897	0.002486544826
6	5114	36.678057652564	0.002481744826
6	5135	36.694818719231	0.002576144826
6	5156	36.711544585898	0.002635344826
6	5177	36.728342452565	0.002766544826
6	5198	36.745212319232	0.002969744826
6	5219	36.761886985899	0.002977744826
6	5240	36.778238452566	0.002662544826
6	5276	36.794983519233	0.002740944826
6	5297	36.8116229859	0.002713744826
6	5318	36.828393652567	0.002817744826
6	5339	36.845239519234	0.002996944826
6	5360	36.861658185901	0.002748944826
6	5381	36.878068852568	0.002492944826
6	5402	36.894722719235	0.002480144826
6	5423	36.911334985902	0.002425744826
6	5444	36.928022452569	0.002446544826
6	5465	36.944617119236	0.002374544826
6	5486	36.961362185903	0.002452944826
6	5507	36.97810405257	0.002528144826
6	5528	36.994909919237	0.002667344826
6	5549	37.011667785904	0.002758544826
7	68	12.80928058582	20
7	98	16.08247970776	20
7	113	19.253574589549	20
7	143	22.879348308728	20
7	173	28.18077750985	20
7	203	32.403513340414	20
7	5258	36.786957051004	40
7	5593	42.637814954062	40
7	5623	44.981430784211	40
7	5638	47.391063627136	20
7	5683	52.103329594554	20
7	5713	57.572597098085	20
7	5758	62.818340100059	20
7	5788	68.441379348291	20
7	5806	72.437209699352	20
7	5838	77.769147200737	20
7	5853	83.108275941664	20
7	5868	87.054328420564	20
7	5883	91.24251783715	20
7	5898	96.49799759407	20
7	5920	101.336305095048	28
8	68	12.80928058582	0.000371344826
8	98	16.08247970776	0.000371344826
8	113	19.253574589549	0.000371344826
8	143	22.879348308728	0.000371344826
8	173	28.18077750985	0.000371344826
8	203	32.403513340414	0.000371344826
8	5258	36.786957051004	0.000403344826
8	5593	42.637814954062	0.000403344826
8	5623	44.981430784211	0.000403344826
8	5638	47.391063627136	0.000371344826
8	5683	52.103329594554	0.000371344826
8	5713	57.572597098085	0.000371344826
8	5758	62.818340100059	0.000371344826
8	5788	68.441379348291	0.000371344826
8	5806	72.437209699352	0.000371344826
8	5838	77.769147200737	0.000371344826
8	5853	83.108275941664	0.000371344826
8	5868	87.054328420564	0.000371344826
8	5883	91.24251783715	0.000371344826
8	5898	96.49799759407	0.000371344826
8	5920	101.336305095048	0.000384144826
14	32	12.309136991971	49
14	72	15.938769376248	49
14	117	21.945856269481	49
14	147	25.958337438241	49
14	177	31.34367055733	49
14	3447	35.365640758771	73
14	5567	39.029760637464	73
14	5597	44.513224081126	73
14	5642	47.950020883301	49
14	5657	50.085073576936	49
14	5687	53.648464330139	49
14	5717	59.628843037494	49
14	5732	62.256936650715	49
14	5762	67.879667653672	49
14	5812	73.948134438381	57
16	32	12.309136991971	0
16	72	15.938769376248	0
16	117	21.945856269481	0
16	147	25.958337438241	0
16	177	31.34367055733	0
16	3447	35.365640758771	0
16	5567	39.029760637464	0
16	5597	44.513224081126	0
16	5642	47.950020883301	0
16	5657	50.085073576936	0
16	5687	53.648464330139	0
16	5717	59.628843037494	0
16	5732	62.256936650715	0
16	5762	67.879667653672	0
16	5812	73.948134438381	0
17	0	0	0
18	0	0	0
18	33	12.309136991971	1
18	34	12.309181791971	0
18	73	15.938769376248	1
18	74	15.938814176248	0
18	118	21.945856269481	1
18	119	21.945901069481	0
18	148	25.958337438241	1
18	149	25.958382238241	0
18	178	31.34367055733	1
18	179	31.34371535733	0
18	3448	35.365640758771	1
18	3449	35.365704758771	0
18	5568	39.029760637464	1
18	5569	39.029824637464	0
18	5598	44.513224081126	1
18	5599	44.513288081126	0
18	5643	47.950020883301	1
18	5644	47.950065683301	0
18	5658	50.085073576936	1
18	5659	50.085118376936	0
18	5688	53.648464330139	1
18	5689	53.648509130139	0
18	5718	59.628843037494	1
18	5719	59.628887837494	0
18	5733	62.256936650715	1
18	5734	62.256981450715	0
18	5763	67.879667653672	1
18	5764	67.879712453672	0
18	5813	73.948134438381	1
18	5814	73.948185638381	0
19	33	12.309136991971	56
19	73	15.938769376248	56
19	118	21.945856269481	56
19	148	25.958337438241	56
19	178	31.34367055733	56
19	3448	35.365640758771	80
19	5568	39.029760637464	80
19	5598	44.513224081126	80
19	5643	47.950020883301	56
19	5658	50.085073576936	56
19	5688	53.648464330139	56
19	5718	59.628843037494	56
19	5733	62.256936650715	56
19	5763	67.879667653672	56
19	5813	73.948134438381	64
20	65	12.80928058582	55
20	95	16.08247970776	55
20	110	19.253574589549	55
20	140	22.879348308728	55
20	170	28.18077750985	55
20	200	32.403513340414	55
20	224	32.81173978582	1592
20	245	32.828160052487	1438
20	266	32.844953119154	1517
20	287	32.861634185821	1526
20	308	32.878332852488	1546
20	329	32.895055519155	1581
20	350	32.911822985822	1644
20	371	32.928563252489	1690
20	392	32.945220319156	1684
20	413	32.962016585823	1765
20	434	32.97861285249	1721
20	455	32.995212319157	1679
20	476	33.011766985824	1609
20	497	33.028468852491	1631
20	518	33.045095519158	1606
20	539	33.061734985825	1589
20	560	33.078454452492	1622
20	581	33.095130719159	1628
20	602	33.111773385826	1613
20	623	33.128419252493	1600
20	644	33.14507951916	1596
20	665	33.161720585827	1580
20	686	33.178347252494	1555
20	707	33.194898719161	1483
20	728	33.211530185828	1461
20	749	33.228172852495	1446
20	770	33.244729119162	1377
20	791	33.261370185829	1361
20	812	33.278049652496	1369
20	833	33.294713119163	1367
20	854	33.31142458583	1395
20	875	33.328120052497	1413
20	896	33.344751519164	1391
20	917	33.361480585831	1430
20	938	33.378184052498	1453
20	959	33.394951519165	1516
20	980	33.411755785832	1602
20	1001	33.428401652499	1589
20	1022	33.445036319166	1569
20	1043	33.461680585833	1555
20	1064	33.4783680525	1568
20	1085	33.495175519167	1656
20	1106	33.511806985834	1634
20	1127	33.528462452501	1627
20	1148	33.545175519168	1656
20	1169	33.561821385835	1643
20	1190	33.578392052502	1583
20	1211	33.595031519169	1566
20	1232	33.611690185836	1561
20	1253	33.628364852503	1566
20	1274	33.64507951917	1596
20	1295	33.661728585837	1585
20	1316	33.678515252504	1660
20	1337	33.695228319171	1689
20	1358	33.711677385838	1553
20	1379	33.728289652505	1519
20	1400	33.744961119172	1522
20	1421	33.761698185839	1566
20	1442	33.778296052506	1523
20	1463	33.794868319173	1464
20	1484	33.81161498584	1514
20	1505	33.828396852507	1586
20	1526	33.845119519174	1621
20	1547	33.861760585841	1605
20	1568	33.878507252508	1655
20	1589	33.895169119175	1652
20	1610	33.911784585842	1620
20	1631	33.928478452509	1637
20	1652	33.945146719176	1638
20	1673	33.961795785843	1627
20	1694	33.97840325251	1590
20	1715	33.995101919177	1610
20	1736	34.011798985844	1629
20	1757	34.028446452511	1617
20	1778	34.045311519178	1741
20	1799	34.061877385845	1678
20	1820	34.078440052512	1613
20	1841	34.095145119179	1637
20	1862	34.111840585846	1655
20	1883	34.128507252513	1655
20	1904	34.14530831918	1739
20	1925	34.162059785847	1792
20	1946	34.178665652514	1754
20	1967	34.195233119181	1692
20	1988	34.211896585848	1690
20	2009	34.228524852515	1666
20	2030	34.245325919182	1750
20	2051	34.261966985849	1734
20	2072	34.278555252516	1685
20	2093	34.295057119183	1582
20	2114	34.31179098585	1624
20	2135	34.328278452517	1512
20	2156	34.344996319184	1544
20	2177	34.361555785851	1477
20	2198	34.378192052518	1458
20	2219	34.394911519185	1491
20	2240	34.411448585852	1410
20	2261	34.428214452519	1472
20	2282	34.444777119186	1407
20	2303	34.461453385853	1413
20	2324	34.47810565252	1404
20	2345	34.494753119187	1392
20	2366	34.511365385854	1358
20	2387	34.528040052521	1363
20	2408	34.544706719188	1363
20	2429	34.561360585855	1355
20	2450	34.578102452522	1402
20	2471	34.594815519189	1431
20	2492	34.611483785856	1432
20	2513	34.628206452523	1467
20	2534	34.64492111919	1497
20	2555	34.661597385857	1503
20	2576	34.678284852524	1516
20	2597	34.694985119191	1537
20	2618	34.711643785858	1532
20	2639	34.728300852525	1526
20	2660	34.744900319192	1484
20	2681	34.761546185859	1471
20	2702	34.778235252526	1485
20	2723	34.794876319193	1469
20	2744	34.81160218586	1506
20	2765	34.828254452527	1497
20	2786	34.844873119194	1467
20	2807	34.861541385861	1468
20	2828	34.878276852528	1511
20	2849	34.894909919195	1490
20	2870	34.911584585862	1495
20	2891	34.928201652529	1464
20	2912	34.944858719196	1458
20	2933	34.961453385863	1413
20	2954	34.97809285253	1396
20	2975	34.994737119197	1382
20	2996	35.011336585864	1340
20	3017	35.027942452531	1302
20	3038	35.044575519198	1281
20	3059	35.061152585865	1225
20	3080	35.077832052532	1233
20	3101	35.094474719199	1218
20	3122	35.111120585866	1205
20	3143	35.127796852533	1211
20	3164	35.1444939192	1230
20	3185	35.161213385867	1263
20	3206	35.177910452534	1282
20	3227	35.194639519201	1321
20	3248	35.211386185868	1371
20	3269	35.228096052535	1398
20	3290	35.244985119202	1537
20	3311	35.261789385869	1623
20	3332	35.278452852536	1621
20	3353	35.295172319203	1654
20	3374	35.31173978587	1592
20	3395	35.328369652537	1569
20	3416	35.345109919204	1615
20	3437	35.361819785871	1642
20	3473	35.378473652538	1634
20	3494	35.395111519205	1616
20	3515	35.411805385872	1633
20	3536	35.428340852539	1551
20	3557	35.444980319206	1534
20	3578	35.461611785873	1512
20	3599	35.47820965254	1469
20	3620	35.494925919207	1500
20	3641	35.511522185874	1456
20	3662	35.528113652541	1409
20	3683	35.544842719208	1448
20	3704	35.561640585875	1530
20	3725	35.578291252542	1520
20	3746	35.595079519209	1596
20	3767	35.611722185876	1581
20	3788	35.628254452543	1497
20	3809	35.64494031921	1509
20	3830	35.661648585877	1535
20	3851	35.678288052544	1518
20	3872	35.694980319211	1534
20	3893	35.711702985878	1569
20	3914	35.728476852545	1636
20	3935	35.745217119212	1682
20	3956	35.761845385879	1658
20	3977	35.778529652546	1669
20	3998	35.795074719213	1593
20	4019	35.81172218588	1581
20	4040	35.828281652547	1514
20	4061	35.845149919214	1640
20	4082	35.861832585881	1650
20	4103	35.878472052548	1633
20	4124	35.894884319215	1474
20	4145	35.911480585882	1430
20	4166	35.928070452549	1382
20	4187	35.944778719216	1408
20	4208	35.961411785883	1387
20	4229	35.97809285255	1396
20	4250	35.994682719217	1348
20	4271	36.011342985884	1344
20	4292	36.027969652551	1319
20	4313	36.044634719218	1318
20	4334	36.061310985885	1324
20	4355	36.077945652552	1304
20	4376	36.094549919219	1265
20	4397	36.111149385886	1223
20	4418	36.127852852553	1246
20	4439	36.14446031922	1209
20	4460	36.161299785887	1317
20	4481	36.178043252554	1365
20	4502	36.194637919221	1320
20	4523	36.211264585888	1295
20	4544	36.227793652555	1209
20	4565	36.244493919222	1230
20	4586	36.261149385889	1223
20	4607	36.277835252556	1235
20	4628	36.294543519223	1261
20	4649	36.31126458589	1295
20	4670	36.327932852557	1296
20	4691	36.344673119224	1342
20	4712	36.361325385891	1333
20	4733	36.378060852558	1376
20	4754	36.394721119225	1372
20	4775	36.411310985892	1324
20	4796	36.427964852559	1316
20	4817	36.444605919226	1300
20	4838	36.461312585893	1325
20	4859	36.47802405256	1353
20	4880	36.494751519227	1391
20	4901	36.511408585894	1385
20	4922	36.528121652561	1414
20	4943	36.544732319228	1379
20	4964	36.561371785895	1362
20	4985	36.578027252562	1355
20	5006	36.594735519229	1381
20	5027	36.611427785896	1397
20	5048	36.628084852563	1391
20	5069	36.64477391923	1405
20	5090	36.661395785897	1377
20	5111	36.678057652564	1374
20	5132	36.694818719231	1433
20	5153	36.711544585898	1470
20	5174	36.728342452565	1552
20	5195	36.745212319232	1679
20	5216	36.761886985899	1684
20	5237	36.778238452566	1487
20	5255	36.786957051004	75
20	5273	36.794983519233	1536
20	5294	36.8116229859	1519
20	5315	36.828393652567	1584
20	5336	36.845239519234	1696
20	5357	36.861658185901	1541
20	5378	36.878068852568	1381
20	5399	36.894722719235	1373
20	5420	36.911334985902	1339
20	5441	36.928022452569	1352
20	5462	36.944617119236	1307
20	5483	36.961362185903	1356
20	5504	36.97810405257	1403
20	5525	36.994909919237	1490
20	5546	37.011667785904	1547
20	5590	42.637814954062	75
20	5620	44.981430784211	75
20	5635	47.391063627136	55
20	5680	52.103329594554	55
20	5710	57.572597098085	55
20	5755	62.818340100059	55
20	5785	68.441379348291	55
20	5803	72.437209699352	55
20	5835	77.769147200737	55
20	5850	83.108275941664	55
20	5865	87.054328420564	55
20	5880	91.24251783715	55
20	5895	96.49799759407	55
20	5917	101.336305095048	63
23	33	12.309136991971	49
23	73	15.938769376248	49
23	118	21.945856269481	49
23	148	25.958337438241	49
23	178	31.34367055733	49
23	3448	35.365640758771	73
23	5568	39.029760637464	73
23	5598	44.513224081126	73
23	5643	47.950020883301	49
23	5658	50.085073576936	49
23	5688	53.648464330139	49
23	5718	59.628843037494	49
23	5733	62.256936650715	49
23	5763	67.879667653672	49
23	5813	73.948134438381	57
24	65	12.80928058582	48
24	95	16.08247970776	48
24	110	19.253574589549	48
24	140	22.879348308728	48
24	170	28.18077750985	48
24	200	32.403513340414	48
24	224	32.81173978582	1585
24	245	32.828160052487	1431
24	266	32.844953119154	1510
24	287	32.861634185821	1519
24	308	32.878332852488	1539
24	329	32.895055519155	1574
24	350	32.911822985822	1637
24	371	32.928563252489	1683
24	392	32.945220319156	1677
24	413	32.962016585823	1758
24	434	32.97861285249	1714
24	455	32.995212319157	1672
24	476	33.011766985824	1602
24	497	33.028468852491	1624
24	518	33.045095519158	1599
24	539	33.061734985825	1582
24	560	33.078454452492	1615
24	581	33.095130719159	1621
24	602	33.111773385826	1606
24	623	33.128419252493	1593
24	644	33.14507951916	1589
24	665	33.161720585827	1573
24	686	33.178347252494	1548
24	707	33.194898719161	1476
24	728	33.211530185828	1454
24	749	33.228172852495	1439
24	770	33.244729119162	1370
24	791	33.261370185829	1354
24	812	33.278049652496	1362
24	833	33.294713119163	1360
24	854	33.31142458583	1388
24	875	33.328120052497	1406
24	896	33.344751519164	1384
24	917	33.361480585831	1423
24	938	33.378184052498	1446
24	959	33.394951519165	1509
24	980	33.411755785832	1595
24	1001	33.428401652499	1582
24	1022	33.445036319166	1562
24	1043	33.461680585833	1548
24	1064	33.4783680525	1561
24	1085	33.495175519167	1649
24	1106	33.511806985834	1627
24	1127	33.528462452501	1620
24	1148	33.545175519168	1649
24	1169	33.561821385835	1636
24	1190	33.578392052502	1576
24	1211	33.595031519169	1559
24	1232	33.611690185836	1554
24	1253	33.628364852503	1559
24	1274	33.64507951917	1589
24	1295	33.661728585837	1578
24	1316	33.678515252504	1653
24	1337	33.695228319171	1682
24	1358	33.711677385838	1546
24	1379	33.728289652505	1512
24	1400	33.744961119172	1515
24	1421	33.761698185839	1559
24	1442	33.778296052506	1516
24	1463	33.794868319173	1457
24	1484	33.81161498584	1507
24	1505	33.828396852507	1579
24	1526	33.845119519174	1614
24	1547	33.861760585841	1598
24	1568	33.878507252508	1648
24	1589	33.895169119175	1645
24	1610	33.911784585842	1613
24	1631	33.928478452509	1630
24	1652	33.945146719176	1631
24	1673	33.961795785843	1620
24	1694	33.97840325251	1583
24	1715	33.995101919177	1603
24	1736	34.011798985844	1622
24	1757	34.028446452511	1610
24	1778	34.045311519178	1734
24	1799	34.061877385845	1671
24	1820	34.078440052512	1606
24	1841	34.095145119179	1630
24	1862	34.111840585846	1648
24	1883	34.128507252513	1648
24	1904	34.14530831918	1732
24	1925	34.162059785847	1785
24	1946	34.178665652514	1747
24	1967	34.195233119181	1685
24	1988	34.211896585848	1683
24	2009	34.228524852515	1659
24	2030	34.245325919182	1743
24	2051	34.261966985849	1727
24	2072	34.278555252516	1678
24	2093	34.295057119183	1575
24	2114	34.31179098585	1617
24	2135	34.328278452517	1505
24	2156	34.344996319184	1537
24	2177	34.361555785851	1470
24	2198	34.378192052518	1451
24	2219	34.394911519185	1484
24	2240	34.411448585852	1403
24	2261	34.428214452519	1465
24	2282	34.444777119186	1400
24	2303	34.461453385853	1406
24	2324	34.47810565252	1397
24	2345	34.494753119187	1385
24	2366	34.511365385854	1351
24	2387	34.528040052521	1356
24	2408	34.544706719188	1356
24	2429	34.561360585855	1348
24	2450	34.578102452522	1395
24	2471	34.594815519189	1424
24	2492	34.611483785856	1425
24	2513	34.628206452523	1460
24	2534	34.64492111919	1490
24	2555	34.661597385857	1496
24	2576	34.678284852524	1509
24	2597	34.694985119191	1530
24	2618	34.711643785858	1525
24	2639	34.728300852525	1519
24	2660	34.744900319192	1477
24	2681	34.761546185859	1464
24	2702	34.778235252526	1478
24	2723	34.794876319193	1462
24	2744	34.81160218586	1499
24	2765	34.828254452527	1490
24	2786	34.844873119194	1460
24	2807	34.861541385861	1461
24	2828	34.878276852528	1504
24	2849	34.894909919195	1483
24	2870	34.911584585862	1488
24	2891	34.928201652529	1457
24	2912	34.944858719196	1451
24	2933	34.961453385863	1406
24	2954	34.97809285253	1389
24	2975	34.994737119197	1375
24	2996	35.011336585864	1333
24	3017	35.027942452531	1295
24	3038	35.044575519198	1274
24	3059	35.061152585865	1218
24	3080	35.077832052532	1226
24	3101	35.094474719199	1211
24	3122	35.111120585866	1198
24	3143	35.127796852533	1204
24	3164	35.1444939192	1223
24	3185	35.161213385867	1256
24	3206	35.177910452534	1275
24	3227	35.194639519201	1314
24	3248	35.211386185868	1364
24	3269	35.228096052535	1391
24	3290	35.244985119202	1530
24	3311	35.261789385869	1616
24	3332	35.278452852536	1614
24	3353	35.295172319203	1647
24	3374	35.31173978587	1585
24	3395	35.328369652537	1562
24	3416	35.345109919204	1608
24	3437	35.361819785871	1635
24	3473	35.378473652538	1627
24	3494	35.395111519205	1609
24	3515	35.411805385872	1626
24	3536	35.428340852539	1544
24	3557	35.444980319206	1527
24	3578	35.461611785873	1505
24	3599	35.47820965254	1462
24	3620	35.494925919207	1493
24	3641	35.511522185874	1449
24	3662	35.528113652541	1402
24	3683	35.544842719208	1441
24	3704	35.561640585875	1523
24	3725	35.578291252542	1513
24	3746	35.595079519209	1589
24	3767	35.611722185876	1574
24	3788	35.628254452543	1490
24	3809	35.64494031921	1502
24	3830	35.661648585877	1528
24	3851	35.678288052544	1511
24	3872	35.694980319211	1527
24	3893	35.711702985878	1562
24	3914	35.728476852545	1629
24	3935	35.745217119212	1675
24	3956	35.761845385879	1651
24	3977	35.778529652546	1662
24	3998	35.795074719213	1586
24	4019	35.81172218588	1574
24	4040	35.828281652547	1507
24	4061	35.845149919214	1633
24	4082	35.861832585881	1643
24	4103	35.878472052548	1626
24	4124	35.894884319215	1467
24	4145	35.911480585882	1423
24	4166	35.928070452549	1375
24	4187	35.944778719216	1401
24	4208	35.961411785883	1380
24	4229	35.97809285255	1389
24	4250	35.994682719217	1341
24	4271	36.011342985884	1337
24	4292	36.027969652551	1312
24	4313	36.044634719218	1311
24	4334	36.061310985885	1317
24	4355	36.077945652552	1297
24	4376	36.094549919219	1258
24	4397	36.111149385886	1216
24	4418	36.127852852553	1239
24	4439	36.14446031922	1202
24	4460	36.161299785887	1310
24	4481	36.178043252554	1358
24	4502	36.194637919221	1313
24	4523	36.211264585888	1288
24	4544	36.227793652555	1202
24	4565	36.244493919222	1223
24	4586	36.261149385889	1216
24	4607	36.277835252556	1228
24	4628	36.294543519223	1254
24	4649	36.31126458589	1288
24	4670	36.327932852557	1289
24	4691	36.344673119224	1335
24	4712	36.361325385891	1326
24	4733	36.378060852558	1369
24	4754	36.394721119225	1365
24	4775	36.411310985892	1317
24	4796	36.427964852559	1309
24	4817	36.444605919226	1293
24	4838	36.461312585893	1318
24	4859	36.47802405256	1346
24	4880	36.494751519227	1384
24	4901	36.511408585894	1378
24	4922	36.528121652561	1407
24	4943	36.544732319228	1372
24	4964	36.561371785895	1355
24	4985	36.578027252562	1348
24	5006	36.594735519229	1374
24	5027	36.611427785896	1390
24	5048	36.628084852563	1384
24	5069	36.64477391923	1398
24	5090	36.661395785897	1370
24	5111	36.678057652564	1367
24	5132	36.694818719231	1426
24	5153	36.711544585898	1463
24	5174	36.728342452565	1545
24	5195	36.745212319232	1672
24	5216	36.761886985899	1677
24	5237	36.778238452566	1480
24	5255	36.786957051004	68
24	5273	36.794983519233	1529
24	5294	36.8116229859	1512
24	5315	36.828393652567	1577
24	5336	36.845239519234	1689
24	5357	36.861658185901	1534
24	5378	36.878068852568	1374
24	5399	36.894722719235	1366
24	5420	36.911334985902	1332
24	5441	36.928022452569	1345
24	5462	36.944617119236	1300
24	5483	36.961362185903	1349
24	5504	36.97810405257	1396
24	5525	36.994909919237	1483
24	5546	37.011667785904	1540
24	5590	42.637814954062	68
24	5620	44.981430784211	68
24	5635	47.391063627136	48
24	5680	52.103329594554	48
24	5710	57.572597098085	48
24	5755	62.818340100059	48
24	5785	68.441379348291	48
24	5803	72.437209699352	48
24	5835	77.769147200737	48
24	5850	83.108275941664	48
24	5865	87.054328420564	48
24	5880	91.24251783715	48
24	5895	96.49799759407	48
24	5917	101.336305095048	56
25	46	12.808909240994	28
25	85	16.082108362934	28
25	100	19.253203244723	28
25	130	22.878976963902	28
25	160	28.180406165024	28
25	190	32.403141995588	28
25	213	32.808909240994	1565
25	234	32.825575907661	1411
25	255	32.842242574328	1490
25	276	32.858909240995	1499
25	297	32.875575907662	1519
25	318	32.892242574329	1554
25	339	32.908909240996	1617
25	360	32.925575907663	1663
25	381	32.94224257433	1657
25	402	32.958909240997	1738
25	423	32.975575907664	1694
25	444	32.992242574331	1652
25	465	33.008909240998	1582
25	486	33.025575907665	1604
25	507	33.042242574332	1579
25	528	33.058909240999	1562
25	549	33.075575907666	1595
25	570	33.092242574333	1601
25	591	33.108909241	1586
25	612	33.125575907667	1573
25	633	33.142242574334	1569
25	654	33.158909241001	1553
25	675	33.175575907668	1528
25	696	33.192242574335	1456
25	717	33.208909241002	1434
25	738	33.225575907669	1419
25	759	33.242242574336	1350
25	780	33.258909241003	1334
25	801	33.27557590767	1342
25	822	33.292242574337	1340
25	843	33.308909241004	1368
25	864	33.325575907671	1386
25	885	33.342242574338	1364
25	906	33.358909241005	1403
25	927	33.375575907672	1426
25	948	33.392242574339	1489
25	969	33.408909241006	1575
25	990	33.425575907673	1562
25	1011	33.44224257434	1542
25	1032	33.458909241007	1528
25	1053	33.475575907674	1541
25	1074	33.492242574341	1629
25	1095	33.508909241008	1607
25	1116	33.525575907675	1600
25	1137	33.542242574342	1629
25	1158	33.558909241009	1616
25	1179	33.575575907676	1556
25	1200	33.592242574343	1539
25	1221	33.60890924101	1534
25	1242	33.625575907677	1539
25	1263	33.642242574344	1569
25	1284	33.658909241011	1558
25	1305	33.675575907678	1633
25	1326	33.692242574345	1662
25	1347	33.708909241012	1526
25	1368	33.725575907679	1492
25	1389	33.742242574346	1495
25	1410	33.758909241013	1539
25	1431	33.77557590768	1496
25	1452	33.792242574347	1437
25	1473	33.808909241014	1487
25	1494	33.825575907681	1559
25	1515	33.842242574348	1594
25	1536	33.858909241015	1578
25	1557	33.875575907682	1628
25	1578	33.892242574349	1625
25	1599	33.908909241016	1593
25	1620	33.925575907683	1610
25	1641	33.94224257435	1611
25	1662	33.958909241017	1600
25	1683	33.975575907684	1563
25	1704	33.992242574351	1583
25	1725	34.008909241018	1602
25	1746	34.025575907685	1590
25	1767	34.042242574352	1714
25	1788	34.058909241019	1651
25	1809	34.075575907686	1586
25	1830	34.092242574353	1610
25	1851	34.10890924102	1628
25	1872	34.125575907687	1628
25	1893	34.142242574354	1712
25	1914	34.158909241021	1765
25	1935	34.175575907688	1727
25	1956	34.192242574355	1665
25	1977	34.208909241022	1663
25	1998	34.225575907689	1639
25	2019	34.242242574356	1723
25	2040	34.258909241023	1707
25	2061	34.27557590769	1658
25	2082	34.292242574357	1555
25	2103	34.308909241024	1597
25	2124	34.325575907691	1485
25	2145	34.342242574358	1517
25	2166	34.358909241025	1450
25	2187	34.375575907692	1431
25	2208	34.392242574359	1464
25	2229	34.408909241026	1383
25	2250	34.425575907693	1445
25	2271	34.44224257436	1380
25	2292	34.458909241027	1386
25	2313	34.475575907694	1377
25	2334	34.492242574361	1365
25	2355	34.508909241028	1331
25	2376	34.525575907695	1336
25	2397	34.542242574362	1336
25	2418	34.558909241029	1328
25	2439	34.575575907696	1375
25	2460	34.592242574363	1404
25	2481	34.60890924103	1405
25	2502	34.625575907697	1440
25	2523	34.642242574364	1470
25	2544	34.658909241031	1476
25	2565	34.675575907698	1489
25	2586	34.692242574365	1510
25	2607	34.708909241032	1505
25	2628	34.725575907699	1499
25	2649	34.742242574366	1457
25	2670	34.758909241033	1444
25	2691	34.7755759077	1458
25	2712	34.792242574367	1442
25	2733	34.808909241034	1479
25	2754	34.825575907701	1470
25	2775	34.842242574368	1440
25	2796	34.858909241035	1441
25	2817	34.875575907702	1484
25	2838	34.892242574369	1463
25	2859	34.908909241036	1468
25	2880	34.925575907703	1437
25	2901	34.94224257437	1431
25	2922	34.958909241037	1386
25	2943	34.975575907704	1369
25	2964	34.992242574371	1355
25	2985	35.008909241038	1313
25	3006	35.025575907705	1275
25	3027	35.042242574372	1254
25	3048	35.058909241039	1198
25	3069	35.075575907706	1206
25	3090	35.092242574373	1191
25	3111	35.10890924104	1178
25	3132	35.125575907707	1184
25	3153	35.142242574374	1203
25	3174	35.158909241041	1236
25	3195	35.175575907708	1255
25	3216	35.192242574375	1294
25	3237	35.208909241042	1344
25	3258	35.225575907709	1371
25	3279	35.242242574376	1510
25	3300	35.258909241043	1596
25	3321	35.27557590771	1594
25	3342	35.292242574377	1627
25	3363	35.308909241044	1565
25	3384	35.325575907711	1542
25	3405	35.342242574378	1588
25	3426	35.358909241045	1615
25	3462	35.375575907712	1607
25	3483	35.392242574379	1589
25	3504	35.408909241046	1606
25	3525	35.425575907713	1524
25	3546	35.44224257438	1507
25	3567	35.458909241047	1485
25	3588	35.475575907714	1442
25	3609	35.492242574381	1473
25	3630	35.508909241048	1429
25	3651	35.525575907715	1382
25	3672	35.542242574382	1421
25	3693	35.558909241049	1503
25	3714	35.575575907716	1493
25	3735	35.592242574383	1569
25	3756	35.60890924105	1554
25	3777	35.625575907717	1470
25	3798	35.642242574384	1482
25	3819	35.658909241051	1508
25	3840	35.675575907718	1491
25	3861	35.692242574385	1507
25	3882	35.708909241052	1542
25	3903	35.725575907719	1609
25	3924	35.742242574386	1655
25	3945	35.758909241053	1631
25	3966	35.77557590772	1642
25	3987	35.792242574387	1566
25	4008	35.808909241054	1554
25	4029	35.825575907721	1487
25	4050	35.842242574388	1613
25	4071	35.858909241055	1623
25	4092	35.875575907722	1606
25	4113	35.892242574389	1447
25	4134	35.908909241056	1403
25	4155	35.925575907723	1355
25	4176	35.94224257439	1381
25	4197	35.958909241057	1360
25	4218	35.975575907724	1369
25	4239	35.992242574391	1321
25	4260	36.008909241058	1317
25	4281	36.025575907725	1292
25	4302	36.042242574392	1291
25	4323	36.058909241059	1297
25	4344	36.075575907726	1277
25	4365	36.092242574393	1238
25	4386	36.10890924106	1196
25	4407	36.125575907727	1219
25	4428	36.142242574394	1182
25	4449	36.158909241061	1290
25	4470	36.175575907728	1338
25	4491	36.192242574395	1293
25	4512	36.208909241062	1268
25	4533	36.225575907729	1182
25	4554	36.242242574396	1203
25	4575	36.258909241063	1196
25	4596	36.27557590773	1208
25	4617	36.292242574397	1234
25	4638	36.308909241064	1268
25	4659	36.325575907731	1269
25	4680	36.342242574398	1315
25	4701	36.358909241065	1306
25	4722	36.375575907732	1349
25	4743	36.392242574399	1345
25	4764	36.408909241066	1297
25	4785	36.425575907733	1289
25	4806	36.4422425744	1273
25	4827	36.458909241067	1298
25	4848	36.475575907734	1326
25	4869	36.492242574401	1364
25	4890	36.508909241068	1358
25	4911	36.525575907735	1387
25	4932	36.542242574402	1352
25	4953	36.558909241069	1335
25	4974	36.575575907736	1328
25	4995	36.592242574403	1354
25	5016	36.60890924107	1370
25	5037	36.625575907737	1364
25	5058	36.642242574404	1378
25	5079	36.658909241071	1350
25	5100	36.675575907738	1347
25	5121	36.692242574405	1406
25	5142	36.708909241072	1443
25	5163	36.725575907739	1525
25	5184	36.742242574406	1652
25	5205	36.758909241073	1657
25	5226	36.77557590774	1460
25	5245	36.786553706178	48
25	5262	36.792242574407	1509
25	5283	36.808909241074	1492
25	5304	36.825575907741	1557
25	5325	36.842242574408	1669
25	5346	36.858909241075	1514
25	5367	36.875575907742	1354
25	5388	36.892242574409	1346
25	5409	36.908909241076	1312
25	5430	36.925575907743	1325
25	5451	36.94224257441	1280
25	5472	36.958909241077	1329
25	5493	36.975575907744	1376
25	5514	36.992242574411	1463
25	5535	37.008909241078	1520
25	5580	42.637411609236	48
25	5610	44.981027439385	48
25	5625	47.39069228231	28
25	5670	52.102958249728	28
25	5700	57.572225753259	28
25	5745	62.817968755233	28
25	5775	68.441008003465	28
25	5793	72.436838354526	28
25	5825	77.768775855911	28
25	5840	83.107904596838	28
25	5855	87.053957075738	28
25	5870	91.242146492324	28
25	5885	96.497626249244	28
25	5905	101.335920950222	36
26	42	12.309613459544	29
26	82	15.939245843821	29
26	127	21.946332737054	29
26	157	25.958813905814	29
26	187	31.344147024903	29
26	3457	35.366155626344	53
26	5577	39.030275505037	53
26	5607	44.513738948699	53
26	5652	47.950497350874	29
26	5667	50.085550044509	29
26	5697	53.648940797712	29
26	5727	59.629319505067	29
26	5742	62.257413118288	29
26	5772	67.880144121245	29
26	5822	73.948623705954	37
27	42	12.309613459544	1
27	82	15.939245843821	2
27	127	21.946332737054	3
27	157	25.958813905814	4
27	187	31.344147024903	5
27	3457	35.366155626344	6
27	5577	39.030275505037	7
27	5607	44.513738948699	8
27	5652	47.950497350874	9
27	5667	50.085550044509	10
27	5697	53.648940797712	11
27	5727	59.629319505067	12
27	5742	62.257413118288	13
27	5772	67.880144121245	14
27	5822	73.948623705954	15
32	43	12.309613459544	21
32	83	15.939245843821	21
32	128	21.946332737054	21
32	158	25.958813905814	21
32	188	31.344147024903	21
32	3458	35.366155626344	45
32	5578	39.030275505037	45
32	5608	44.513738948699	45
32	5653	47.950497350874	21
32	5668	50.085550044509	21
32	5698	53.648940797712	21
32	5728	59.629319505067	21
32	5743	62.257413118288	21
32	5773	67.880144121245	21
32	5823	73.948623705954	29
33	43	12.309613459544	0.000476467573
33	83	15.939245843821	0.000476467573
33	128	21.946332737054	0.000476467573
33	158	25.958813905814	0.000476467573
33	188	31.344147024903	0.000476467573
33	3458	35.366155626344	0.000514867573
33	5578	39.030275505037	0.000514867573
33	5608	44.513738948699	0.000514867573
33	5653	47.950497350874	0.000476467573
33	5668	50.085550044509	0.000476467573
33	5698	53.648940797712	0.000476467573
33	5728	59.629319505067	0.000476467573
33	5743	62.257413118288	0.000476467573
33	5773	67.880144121245	0.000476467573
33	5823	73.948623705954	0.000489267573
39	50	12.808909240994	48
39	87	16.082108362934	48
39	102	19.253203244723	48
39	132	22.878976963902	48
39	162	28.180406165024	48
39	192	32.403141995588	48
39	216	32.808909240994	1585
39	237	32.825575907661	1431
39	258	32.842242574328	1510
39	279	32.858909240995	1519
39	300	32.875575907662	1539
39	321	32.892242574329	1574
39	342	32.908909240996	1637
39	363	32.925575907663	1683
39	384	32.94224257433	1677
39	405	32.958909240997	1758
39	426	32.975575907664	1714
39	447	32.992242574331	1672
39	468	33.008909240998	1602
39	489	33.025575907665	1624
39	510	33.042242574332	1599
39	531	33.058909240999	1582
39	552	33.075575907666	1615
39	573	33.092242574333	1621
39	594	33.108909241	1606
39	615	33.125575907667	1593
39	636	33.142242574334	1589
39	657	33.158909241001	1573
39	678	33.175575907668	1548
39	699	33.192242574335	1476
39	720	33.208909241002	1454
39	741	33.225575907669	1439
39	762	33.242242574336	1370
39	783	33.258909241003	1354
39	804	33.27557590767	1362
39	825	33.292242574337	1360
39	846	33.308909241004	1388
39	867	33.325575907671	1406
39	888	33.342242574338	1384
39	909	33.358909241005	1423
39	930	33.375575907672	1446
39	951	33.392242574339	1509
39	972	33.408909241006	1595
39	993	33.425575907673	1582
39	1014	33.44224257434	1562
39	1035	33.458909241007	1548
39	1056	33.475575907674	1561
39	1077	33.492242574341	1649
39	1098	33.508909241008	1627
39	1119	33.525575907675	1620
39	1140	33.542242574342	1649
39	1161	33.558909241009	1636
39	1182	33.575575907676	1576
39	1203	33.592242574343	1559
39	1224	33.60890924101	1554
39	1245	33.625575907677	1559
39	1266	33.642242574344	1589
39	1287	33.658909241011	1578
39	1308	33.675575907678	1653
39	1329	33.692242574345	1682
39	1350	33.708909241012	1546
39	1371	33.725575907679	1512
39	1392	33.742242574346	1515
39	1413	33.758909241013	1559
39	1434	33.77557590768	1516
39	1455	33.792242574347	1457
39	1476	33.808909241014	1507
39	1497	33.825575907681	1579
39	1518	33.842242574348	1614
39	1539	33.858909241015	1598
39	1560	33.875575907682	1648
39	1581	33.892242574349	1645
39	1602	33.908909241016	1613
39	1623	33.925575907683	1630
39	1644	33.94224257435	1631
39	1665	33.958909241017	1620
39	1686	33.975575907684	1583
39	1707	33.992242574351	1603
39	1728	34.008909241018	1622
39	1749	34.025575907685	1610
39	1770	34.042242574352	1734
39	1791	34.058909241019	1671
39	1812	34.075575907686	1606
39	1833	34.092242574353	1630
39	1854	34.10890924102	1648
39	1875	34.125575907687	1648
39	1896	34.142242574354	1732
39	1917	34.158909241021	1785
39	1938	34.175575907688	1747
39	1959	34.192242574355	1685
39	1980	34.208909241022	1683
39	2001	34.225575907689	1659
39	2022	34.242242574356	1743
39	2043	34.258909241023	1727
39	2064	34.27557590769	1678
39	2085	34.292242574357	1575
39	2106	34.308909241024	1617
39	2127	34.325575907691	1505
39	2148	34.342242574358	1537
39	2169	34.358909241025	1470
39	2190	34.375575907692	1451
39	2211	34.392242574359	1484
39	2232	34.408909241026	1403
39	2253	34.425575907693	1465
39	2274	34.44224257436	1400
39	2295	34.458909241027	1406
39	2316	34.475575907694	1397
39	2337	34.492242574361	1385
39	2358	34.508909241028	1351
39	2379	34.525575907695	1356
39	2400	34.542242574362	1356
39	2421	34.558909241029	1348
39	2442	34.575575907696	1395
39	2463	34.592242574363	1424
39	2484	34.60890924103	1425
39	2505	34.625575907697	1460
39	2526	34.642242574364	1490
39	2547	34.658909241031	1496
39	2568	34.675575907698	1509
39	2589	34.692242574365	1530
39	2610	34.708909241032	1525
39	2631	34.725575907699	1519
39	2652	34.742242574366	1477
39	2673	34.758909241033	1464
39	2694	34.7755759077	1478
39	2715	34.792242574367	1462
39	2736	34.808909241034	1499
39	2757	34.825575907701	1490
39	2778	34.842242574368	1460
39	2799	34.858909241035	1461
39	2820	34.875575907702	1504
39	2841	34.892242574369	1483
39	2862	34.908909241036	1488
39	2883	34.925575907703	1457
39	2904	34.94224257437	1451
39	2925	34.958909241037	1406
39	2946	34.975575907704	1389
39	2967	34.992242574371	1375
39	2988	35.008909241038	1333
39	3009	35.025575907705	1295
39	3030	35.042242574372	1274
39	3051	35.058909241039	1218
39	3072	35.075575907706	1226
39	3093	35.092242574373	1211
39	3114	35.10890924104	1198
39	3135	35.125575907707	1204
39	3156	35.142242574374	1223
39	3177	35.158909241041	1256
39	3198	35.175575907708	1275
39	3219	35.192242574375	1314
39	3240	35.208909241042	1364
39	3261	35.225575907709	1391
39	3282	35.242242574376	1530
39	3303	35.258909241043	1616
39	3324	35.27557590771	1614
39	3345	35.292242574377	1647
39	3366	35.308909241044	1585
39	3387	35.325575907711	1562
39	3408	35.342242574378	1608
39	3429	35.358909241045	1635
39	3465	35.375575907712	1627
39	3486	35.392242574379	1609
39	3507	35.408909241046	1626
39	3528	35.425575907713	1544
39	3549	35.44224257438	1527
39	3570	35.458909241047	1505
39	3591	35.475575907714	1462
39	3612	35.492242574381	1493
39	3633	35.508909241048	1449
39	3654	35.525575907715	1402
39	3675	35.542242574382	1441
39	3696	35.558909241049	1523
39	3717	35.575575907716	1513
39	3738	35.592242574383	1589
39	3759	35.60890924105	1574
39	3780	35.625575907717	1490
39	3801	35.642242574384	1502
39	3822	35.658909241051	1528
39	3843	35.675575907718	1511
39	3864	35.692242574385	1527
39	3885	35.708909241052	1562
39	3906	35.725575907719	1629
39	3927	35.742242574386	1675
39	3948	35.758909241053	1651
39	3969	35.77557590772	1662
39	3990	35.792242574387	1586
39	4011	35.808909241054	1574
39	4032	35.825575907721	1507
39	4053	35.842242574388	1633
39	4074	35.858909241055	1643
39	4095	35.875575907722	1626
39	4116	35.892242574389	1467
39	4137	35.908909241056	1423
39	4158	35.925575907723	1375
39	4179	35.94224257439	1401
39	4200	35.958909241057	1380
39	4221	35.975575907724	1389
39	4242	35.992242574391	1341
39	4263	36.008909241058	1337
39	4284	36.025575907725	1312
39	4305	36.042242574392	1311
39	4326	36.058909241059	1317
39	4347	36.075575907726	1297
39	4368	36.092242574393	1258
39	4389	36.10890924106	1216
39	4410	36.125575907727	1239
39	4431	36.142242574394	1202
39	4452	36.158909241061	1310
39	4473	36.175575907728	1358
39	4494	36.192242574395	1313
39	4515	36.208909241062	1288
39	4536	36.225575907729	1202
39	4557	36.242242574396	1223
39	4578	36.258909241063	1216
39	4599	36.27557590773	1228
39	4620	36.292242574397	1254
39	4641	36.308909241064	1288
39	4662	36.325575907731	1289
39	4683	36.342242574398	1335
39	4704	36.358909241065	1326
39	4725	36.375575907732	1369
39	4746	36.392242574399	1365
39	4767	36.408909241066	1317
39	4788	36.425575907733	1309
39	4809	36.4422425744	1293
39	4830	36.458909241067	1318
39	4851	36.475575907734	1346
39	4872	36.492242574401	1384
39	4893	36.508909241068	1378
39	4914	36.525575907735	1407
39	4935	36.542242574402	1372
39	4956	36.558909241069	1355
39	4977	36.575575907736	1348
39	4998	36.592242574403	1374
39	5019	36.60890924107	1390
39	5040	36.625575907737	1384
39	5061	36.642242574404	1398
39	5082	36.658909241071	1370
39	5103	36.675575907738	1367
39	5124	36.692242574405	1426
39	5145	36.708909241072	1463
39	5166	36.725575907739	1545
39	5187	36.742242574406	1672
39	5208	36.758909241073	1677
39	5229	36.77557590774	1480
39	5247	36.786553706178	68
39	5265	36.792242574407	1529
39	5286	36.808909241074	1512
39	5307	36.825575907741	1577
39	5328	36.842242574408	1689
39	5349	36.858909241075	1534
39	5370	36.875575907742	1374
39	5391	36.892242574409	1366
39	5412	36.908909241076	1332
39	5433	36.925575907743	1345
39	5454	36.94224257441	1300
39	5475	36.958909241077	1349
39	5496	36.975575907744	1396
39	5517	36.992242574411	1483
39	5538	37.008909241078	1540
39	5582	42.637411609236	68
39	5612	44.981027439385	68
39	5627	47.39069228231	48
39	5672	52.102958249728	48
39	5702	57.572225753259	48
39	5747	62.817968755233	48
39	5777	68.441008003465	48
39	5795	72.436838354526	48
39	5827	77.768775855911	48
39	5842	83.107904596838	48
39	5857	87.053957075738	48
39	5872	91.242146492324	48
39	5887	96.497626249244	48
39	5909	101.335920950222	56
41	50	12.808909240994	0
41	87	16.082108362934	0
41	102	19.253203244723	0
41	132	22.878976963902	0
41	162	28.180406165024	0
41	192	32.403141995588	0
41	216	32.808909240994	0
41	237	32.825575907661	0
41	258	32.842242574328	0
41	279	32.858909240995	0
41	300	32.875575907662	0
41	321	32.892242574329	0
41	342	32.908909240996	0
41	363	32.925575907663	0
41	384	32.94224257433	0
41	405	32.958909240997	0
41	426	32.975575907664	0
41	447	32.992242574331	0
41	468	33.008909240998	0
41	489	33.025575907665	0
41	510	33.042242574332	0
41	531	33.058909240999	0
41	552	33.075575907666	0
41	573	33.092242574333	0
41	594	33.108909241	0
41	615	33.125575907667	0
41	636	33.142242574334	0
41	657	33.158909241001	0
41	678	33.175575907668	0
41	699	33.192242574335	0
41	720	33.208909241002	0
41	741	33.225575907669	0
41	762	33.242242574336	0
41	783	33.258909241003	0
41	804	33.27557590767	0
41	825	33.292242574337	0
41	846	33.308909241004	0
41	867	33.325575907671	0
41	888	33.342242574338	0
41	909	33.358909241005	0
41	930	33.375575907672	0
41	951	33.392242574339	0
41	972	33.408909241006	0
41	993	33.425575907673	0
41	1014	33.44224257434	0
41	1035	33.458909241007	0
41	1056	33.475575907674	0
41	1077	33.492242574341	0
41	1098	33.508909241008	0
41	1119	33.525575907675	0
41	1140	33.542242574342	0
41	1161	33.558909241009	0
41	1182	33.575575907676	0
41	1203	33.592242574343	0
41	1224	33.60890924101	0
41	1245	33.625575907677	0
41	1266	33.642242574344	0
41	1287	33.658909241011	0
41	1308	33.675575907678	0
41	1329	33.692242574345	0
41	1350	33.708909241012	0
41	1371	33.725575907679	0
41	1392	33.742242574346	0
41	1413	33.758909241013	0
41	1434	33.77557590768	0
41	1455	33.792242574347	0
41	1476	33.808909241014	0
41	1497	33.825575907681	0
41	1518	33.842242574348	0
41	1539	33.858909241015	0
41	1560	33.875575907682	0
41	1581	33.892242574349	0
41	1602	33.908909241016	0
41	1623	33.925575907683	0
41	1644	33.94224257435	0
41	1665	33.958909241017	0
41	1686	33.975575907684	0
41	1707	33.992242574351	0
41	1728	34.008909241018	0
41	1749	34.025575907685	0
41	1770	34.042242574352	0
41	1791	34.058909241019	0
41	1812	34.075575907686	0
41	1833	34.092242574353	0
41	1854	34.10890924102	0
41	1875	34.125575907687	0
41	1896	34.142242574354	0
41	1917	34.158909241021	0
41	1938	34.175575907688	0
41	1959	34.192242574355	0
41	1980	34.208909241022	0
41	2001	34.225575907689	0
41	2022	34.242242574356	0
41	2043	34.258909241023	0
41	2064	34.27557590769	0
41	2085	34.292242574357	0
41	2106	34.308909241024	0
41	2127	34.325575907691	0
41	2148	34.342242574358	0
41	2169	34.358909241025	0
41	2190	34.375575907692	0
41	2211	34.392242574359	0
41	2232	34.408909241026	0
41	2253	34.425575907693	0
41	2274	34.44224257436	0
41	2295	34.458909241027	0
41	2316	34.475575907694	0
41	2337	34.492242574361	0
41	2358	34.508909241028	0
41	2379	34.525575907695	0
41	2400	34.542242574362	0
41	2421	34.558909241029	0
41	2442	34.575575907696	0
41	2463	34.592242574363	0
41	2484	34.60890924103	0
41	2505	34.625575907697	0
41	2526	34.642242574364	0
41	2547	34.658909241031	0
41	2568	34.675575907698	0
41	2589	34.692242574365	0
41	2610	34.708909241032	0
41	2631	34.725575907699	0
41	2652	34.742242574366	0
41	2673	34.758909241033	0
41	2694	34.7755759077	0
41	2715	34.792242574367	0
41	2736	34.808909241034	0
41	2757	34.825575907701	0
41	2778	34.842242574368	0
41	2799	34.858909241035	0
41	2820	34.875575907702	0
41	2841	34.892242574369	0
41	2862	34.908909241036	0
41	2883	34.925575907703	0
41	2904	34.94224257437	0
41	2925	34.958909241037	0
41	2946	34.975575907704	0
41	2967	34.992242574371	0
[...]
70	4437	36.143307124885	1
70	4438	36.144274324885	0
70	4458	36.160060191552	1
70	4459	36.161113791552	0
70	4479	36.176765258219	1
70	4480	36.177857258219	0
70	4500	36.193395924886	1
70	4501	36.194451924886	0
70	4521	36.210042591553	1
70	4522	36.211078591553	0
70	4542	36.22664045822	1
70	4543	36.22760765822	0
70	4563	36.243323924887	1
70	4564	36.244307924887	0
70	4584	36.259984991554	1
70	4585	36.260963391554	0
70	4605	36.276661258221	1
70	4606	36.277649258221	0
70	4626	36.293348724888	1
70	4627	36.294357524888	0
70	4647	36.310042591555	1
70	4648	36.311078591555	0
70	4668	36.326710058222	1
70	4669	36.327746858222	0
70	4689	36.343413524889	1
70	4690	36.344487124889	0
70	4710	36.360072991556	1
70	4711	36.361139391556	0
70	4731	36.376774058223	1
70	4732	36.377874858223	0
70	4752	36.39343752489	1
70	4753	36.39453512489	0
70	4773	36.410065791557	1
70	4774	36.411124991557	0
70	4794	36.426726058224	1
70	4795	36.427778858224	0
70	4815	36.443379924891	1
70	4816	36.444419924891	0
70	4836	36.460066591558	1
70	4837	36.461126591558	0
70	4857	36.476755658225	1
70	4858	36.477838058225	0
70	4878	36.493452724892	1
70	4879	36.494565524892	0
70	4899	36.510114591559	1
70	4900	36.511222591559	0
70	4920	36.526804458226	1
70	4921	36.527935658226	0
70	4941	36.543443124893	1
70	4942	36.544546324893	0
70	4962	36.56009619156	1
70	4963	36.56118579156	0
70	4983	36.576757258227	1
70	4984	36.577841258227	0
70	5004	36.593444724894	1
70	5005	36.594549524894	0
70	5025	36.610124191561	1
70	5026	36.611241791561	0
70	5046	36.626786058228	1
70	5047	36.627898858228	0
70	5067	36.643463924895	1
70	5068	36.644587924895	0
70	5088	36.660108191562	1
70	5089	36.661209791562	0
70	5109	36.676772458229	1
70	5110	36.677871658229	0
70	5130	36.693486324896	1
70	5131	36.694632724896	0
70	5151	36.710182591563	1
70	5152	36.711358591563	0
70	5172	36.72691485823	1
70	5173	36.72815645823	0
70	5193	36.743683124897	1
70	5194	36.745026324897	0
70	5214	36.760353791564	1
70	5215	36.761700991564	0
70	5235	36.776862858231	1
70	5236	36.778052458231	0
70	5253	36.786711056669	1
70	5254	36.786771056669	0
70	5271	36.793568724898	1
70	5272	36.794797524898	0
70	5292	36.810221791565	1
70	5293	36.811436991565	0
70	5313	36.826940458232	1
70	5314	36.828207658232	0
70	5334	36.843696724899	1
70	5335	36.845053524899	0
70	5355	36.860239391566	1
70	5356	36.861472191566	0
70	5376	36.876778058233	1
70	5377	36.877882858233	0
70	5397	36.8934383249	1
70	5398	36.8945367249	0
70	5418	36.910077791567	1
70	5419	36.911148991567	0
70	5439	36.926754858234	1
70	5440	36.927836458234	0
70	5460	36.943385524901	1
70	5461	36.944431124901	0
70	5481	36.960091391568	1
70	5482	36.961176191568	0
70	5502	36.976795658235	1
70	5503	36.977918058235	0
70	5523	36.993531924902	1
70	5524	36.994723924902	0
70	5544	37.010244191569	1
70	5545	37.011481791569	0
70	5588	42.637568959727	1
70	5589	42.637628959727	0
70	5618	44.981184789876	1
70	5619	44.981244789876	0
70	5633	47.390833632801	1
70	5634	47.390877632801	0
70	5678	52.103099600219	1
70	5679	52.103143600219	0
70	5708	57.57236710375	1
70	5709	57.57241110375	0
70	5753	62.818110105724	1
70	5754	62.818154105724	0
70	5783	68.441149353956	1
70	5784	68.441193353956	0
70	5801	72.436979705017	1
70	5802	72.437023705017	0
70	5833	77.768917206402	1
70	5834	77.768961206402	0
70	5848	83.108045947329	1
70	5849	83.108089947329	0
70	5863	87.054098426229	1
70	5864	87.054142426229	0
70	5878	91.242287842815	1
70	5879	91.242331842815	0
70	5893	96.497767599735	1
70	5894	96.497811599735	0
70	5915	101.336068700713	1
70	5916	101.336119100713	0
71	63	12.809050591485	55
71	93	16.082249713425	55
71	108	19.253344595214	55
71	138	22.879118314393	55
71	168	28.180547515515	55
71	198	32.403283346079	55
71	222	32.810280191485	1592
71	243	32.826823658152	1438
71	264	32.843553524819	1517
71	285	32.860227391486	1526
71	306	32.876910058153	1546
71	327	32.89360472482	1581
71	348	32.910321791487	1644
71	369	32.927025258154	1690
71	390	32.943687124821	1684
71	411	32.960418591488	1765
71	432	32.977050058155	1721
71	453	32.993683124822	1679
71	474	33.010293791489	1609
71	495	33.026978058156	1631
71	516	33.043624724823	1606
71	537	33.06027779149	1589
71	558	33.076970858157	1622
71	579	33.093642324824	1628
71	600	33.110296991491	1613
71	621	33.126953258158	1600
71	642	33.143616724825	1596
71	663	33.160270591492	1580
71	684	33.176917258159	1555
71	705	33.193526324826	1483
71	726	33.210175391493	1461
71	747	33.22683005816	1446
71	768	33.243441524827	1377
71	789	33.260095391494	1361
71	810	33.276768458161	1369
71	831	33.293433524828	1367
71	852	33.310122591495	1395
71	873	33.326803658162	1413
71	894	33.343452724829	1391
71	915	33.360150591496	1430
71	936	33.376835658163	1453
71	957	33.39355272483	1516
71	978	33.410288191497	1602
71	999	33.426944458164	1589
71	1020	33.443595124831	1569
71	1041	33.460250591498	1555
71	1062	33.476927658165	1568
71	1083	33.493664724832	1656
71	1104	33.510313791499	1634
71	1125	33.526974858166	1627
71	1146	33.543664724833	1656
71	1167	33.5603209915	1643
71	1188	33.576939658167	1583
71	1209	33.593592724834	1566
71	1230	33.610255391501	1561
71	1251	33.626926058168	1566
71	1272	33.643616724835	1596
71	1293	33.660274591502	1585
71	1314	33.677001258169	1660
71	1335	33.693691124836	1689
71	1356	33.710248991503	1553
71	1377	33.72688845817	1519
71	1398	33.743557524837	1522
71	1419	33.760259391504	1566
71	1440	33.776891658171	1523
71	1461	33.793511124838	1464
71	1482	33.810217791505	1514
71	1503	33.826942058172	1586
71	1524	33.843636724839	1621
71	1545	33.860290591506	1605
71	1566	33.876997258173	1655
71	1587	33.89366152484	1652
71	1608	33.910302591507	1620
71	1629	33.926982858174	1637
71	1650	33.943650324841	1638
71	1671	33.960308191508	1627
71	1692	33.976945258175	1590
71	1713	33.993627924842	1610
71	1734	34.010309791509	1629
71	1755	34.026966858176	1617
71	1776	34.043732724843	1741
71	1797	34.06034899151	1678
71	1818	34.076963658177	1613
71	1839	34.093649524844	1637
71	1860	34.110330591511	1655
71	1881	34.126997258178	1655
71	1902	34.143731124845	1739
71	1923	34.160440191512	1792
71	1944	34.177076458179	1754
71	1965	34.193693524846	1692
71	1986	34.210358591513	1690
71	2007	34.22700605818	1666
71	2028	34.243739924847	1750
71	2049	34.260393791514	1734
71	2070	34.277021258181	1685
71	2091	34.293605524848	1582
71	2112	34.310305791515	1624
71	2133	34.326882858182	1512
71	2154	34.343575124849	1544
71	2175	34.360188191516	1477
71	2196	34.376839658183	1458
71	2217	34.39353272485	1491
71	2238	34.410134591517	1410
71	2259	34.426850858184	1472
71	2280	34.443465524851	1407
71	2301	34.460136991518	1413
71	2322	34.476796458185	1404
71	2343	34.493453524852	1392
71	2364	34.510092991519	1358
71	2385	34.526763658186	1363
71	2406	34.543430324853	1363
71	2427	34.56009059152	1355
71	2448	34.576794858187	1402
71	2469	34.593484724854	1431
71	2490	34.610152191521	1432
71	2511	34.626846858188	1467
71	2532	34.643537524855	1497
71	2553	34.660208991522	1503
71	2574	34.676886058189	1516
71	2595	34.693569524856	1537
71	2616	34.710232191523	1532
71	2637	34.72689405819	1526
71	2658	34.743527124857	1484
71	2679	34.760183391524	1471
71	2700	34.776861258191	1485
71	2721	34.793515124858	1469
71	2742	34.810211391525	1506
71	2763	34.826870858192	1497
71	2784	34.843513524859	1467
71	2805	34.860180991526	1468
71	2826	34.876882058193	1511
71	2847	34.89353192486	1490
71	2868	34.910202591527	1495
71	2889	34.926844458194	1464
71	2910	34.943506324861	1458
71	2931	34.960136991528	1413
71	2952	34.976790058195	1396
71	2973	34.993445524862	1382
71	2994	35.010078591529	1340
71	3015	35.026714858196	1302
71	3036	35.043364724863	1281
71	3057	35.05998659153	1225
71	3078	35.076659658197	1233
71	3099	35.093314324864	1218
71	3120	35.109970591531	1205
71	3141	35.126642058198	1211
71	3162	35.143323924865	1230
71	3183	35.160016991532	1263
71	3204	35.176698858199	1282
71	3225	35.193396724866	1321
71	3246	35.210103391533	1371
71	3267	35.2267916582	1398
71	3288	35.243569524867	1537
71	3309	35.260304991534	1623
71	3330	35.276970058201	1621
71	3351	35.293663124868	1654
71	3372	35.310280191535	1592
71	3393	35.326928458202	1569
71	3414	35.343631924869	1615
71	3435	35.360320191536	1642
71	3471	35.376980458203	1634
71	3492	35.39363272487	1616
71	3513	35.410312991537	1633
71	3534	35.426914058204	1551
71	3555	35.443567124871	1534
71	3576	35.460216191538	1512
71	3597	35.476848458205	1469
71	3618	35.493539924872	1500
71	3639	35.510171391539	1456
71	3660	35.526800458206	1409
71	3681	35.543498324873	1448
71	3702	35.56023059154	1530
71	3723	35.576889258207	1520
71	3744	35.593616724874	1596
71	3765	35.610271391541	1581
71	3786	35.626870858208	1497
71	3807	35.643547124875	1509
71	3828	35.660234591542	1535
71	3849	35.676887658209	1518
71	3870	35.693567124876	1534
71	3891	35.710261791543	1569
71	3912	35.72698205821	1636
71	3933	35.743685524877	1682
71	3954	35.760332991544	1658
71	3975	35.777008458211	1669
71	3996	35.793614324878	1593
71	4017	35.810271391545	1581
71	4038	35.826884458212	1514
71	4059	35.843651924879	1640
71	4080	35.860326591546	1650
71	4101	35.876979658213	1633
71	4122	35.89351912488	1474
71	4143	35.910150591547	1430
71	4164	35.926778858214	1382
71	4185	35.943466324881	1408
71	4206	35.960116191548	1387
71	4227	35.976790058215	1396
71	4248	35.993418324882	1348
71	4269	36.010081791549	1344
71	4290	36.026728458216	1319
71	4311	36.043394324883	1318
71	4332	36.06006579155	1324
71	4353	36.076716458217	1304
71	4374	36.093351924884	1265
71	4395	36.109984991551	1223
71	4416	36.126670058218	1246
71	4437	36.143307124885	1209
71	4458	36.160060191552	1317
71	4479	36.176765258219	1365
71	4500	36.193395924886	1320
71	4521	36.210042591553	1295
71	4542	36.22664045822	1209
71	4563	36.243323924887	1230
71	4584	36.259984991554	1223
71	4605	36.276661258221	1235
71	4626	36.293348724888	1261
71	4647	36.310042591555	1295
71	4668	36.326710058222	1296
71	4689	36.343413524889	1342
71	4710	36.360072991556	1333
71	4731	36.376774058223	1376
71	4752	36.39343752489	1372
71	4773	36.410065791557	1324
71	4794	36.426726058224	1316
71	4815	36.443379924891	1300
71	4836	36.460066591558	1325
71	4857	36.476755658225	1353
71	4878	36.493452724892	1391
71	4899	36.510114591559	1385
71	4920	36.526804458226	1414
71	4941	36.543443124893	1379
71	4962	36.56009619156	1362
71	4983	36.576757258227	1355
71	5004	36.593444724894	1381
71	5025	36.610124191561	1397
71	5046	36.626786058228	1391
71	5067	36.643463924895	1405
71	5088	36.660108191562	1377
71	5109	36.676772458229	1374
71	5130	36.693486324896	1433
71	5151	36.710182591563	1470
71	5172	36.72691485823	1552
71	5193	36.743683124897	1679
71	5214	36.760353791564	1684
71	5235	36.776862858231	1487
71	5253	36.786711056669	75
71	5271	36.793568724898	1536
71	5292	36.810221791565	1519
71	5313	36.826940458232	1584
71	5334	36.843696724899	1696
71	5355	36.860239391566	1541
71	5376	36.876778058233	1381
71	5397	36.8934383249	1373
71	5418	36.910077791567	1339
71	5439	36.926754858234	1352
71	5460	36.943385524901	1307
71	5481	36.960091391568	1356
71	5502	36.976795658235	1403
71	5523	36.993531924902	1490
71	5544	37.010244191569	1547
71	5588	42.637568959727	75
71	5618	44.981184789876	75
71	5633	47.390833632801	55
71	5678	52.103099600219	55
71	5708	57.57236710375	55
71	5753	62.818110105724	55
71	5783	68.441149353956	55
71	5801	72.436979705017	55
71	5833	77.768917206402	55
71	5848	83.108045947329	55
71	5863	87.054098426229	55
71	5878	91.242287842815	55
71	5893	96.497767599735	55
71	5915	101.336068700713	63
72	35	12.309374420505	56
72	75	15.939006804782	56
72	120	21.946093698015	56
72	150	25.958574866775	56
72	180	31.343907985864	56
72	3450	35.365897387305	80
72	5570	39.030017265998	80
72	5600	44.51348070966	80
72	5645	47.950258311835	56
72	5660	50.08531100547	56
72	5690	53.648701758673	56
72	5720	59.629080466028	56
72	5735	62.257174079249	56
72	5765	67.879905082206	56
72	5815	73.948378266915	64
75	63	12.809050591485	48
75	93	16.082249713425	48
75	108	19.253344595214	48
75	138	22.879118314393	48
75	168	28.180547515515	48
75	198	32.403283346079	48
75	222	32.810280191485	1585
75	243	32.826823658152	1431
75	264	32.843553524819	1510
75	285	32.860227391486	1519
75	306	32.876910058153	1539
75	327	32.89360472482	1574
75	348	32.910321791487	1637
75	369	32.927025258154	1683
75	390	32.943687124821	1677
75	411	32.960418591488	1758
75	432	32.977050058155	1714
75	453	32.993683124822	1672
75	474	33.010293791489	1602
75	495	33.026978058156	1624
75	516	33.043624724823	1599
75	537	33.06027779149	1582
75	558	33.076970858157	1615
75	579	33.093642324824	1621
75	600	33.110296991491	1606
75	621	33.126953258158	1593
75	642	33.143616724825	1589
75	663	33.160270591492	1573
75	684	33.176917258159	1548
75	705	33.193526324826	1476
75	726	33.210175391493	1454
75	747	33.22683005816	1439
75	768	33.243441524827	1370
75	789	33.260095391494	1354
75	810	33.276768458161	1362
75	831	33.293433524828	1360
75	852	33.310122591495	1388
75	873	33.326803658162	1406
75	894	33.343452724829	1384
75	915	33.360150591496	1423
75	936	33.376835658163	1446
75	957	33.39355272483	1509
75	978	33.410288191497	1595
75	999	33.426944458164	1582
75	1020	33.443595124831	1562
75	1041	33.460250591498	1548
75	1062	33.476927658165	1561
75	1083	33.493664724832	1649
75	1104	33.510313791499	1627
75	1125	33.526974858166	1620
75	1146	33.543664724833	1649
75	1167	33.5603209915	1636
75	1188	33.576939658167	1576
75	1209	33.593592724834	1559
75	1230	33.610255391501	1554
75	1251	33.626926058168	1559
75	1272	33.643616724835	1589
75	1293	33.660274591502	1578
75	1314	33.677001258169	1653
75	1335	33.693691124836	1682
75	1356	33.710248991503	1546
75	1377	33.72688845817	1512
75	1398	33.743557524837	1515
75	1419	33.760259391504	1559
75	1440	33.776891658171	1516
75	1461	33.793511124838	1457
75	1482	33.810217791505	1507
75	1503	33.826942058172	1579
75	1524	33.843636724839	1614
75	1545	33.860290591506	1598
75	1566	33.876997258173	1648
75	1587	33.89366152484	1645
75	1608	33.910302591507	1613
75	1629	33.926982858174	1630
75	1650	33.943650324841	1631
75	1671	33.960308191508	1620
75	1692	33.976945258175	1583
75	1713	33.993627924842	1603
75	1734	34.010309791509	1622
75	1755	34.026966858176	1610
75	1776	34.043732724843	1734
75	1797	34.06034899151	1671
75	1818	34.076963658177	1606
75	1839	34.093649524844	1630
75	1860	34.110330591511	1648
75	1881	34.126997258178	1648
75	1902	34.143731124845	1732
75	1923	34.160440191512	1785
75	1944	34.177076458179	1747
75	1965	34.193693524846	1685
75	1986	34.210358591513	1683
75	2007	34.22700605818	1659
75	2028	34.243739924847	1743
75	2049	34.260393791514	1727
75	2070	34.277021258181	1678
75	2091	34.293605524848	1575
75	2112	34.310305791515	1617
75	2133	34.326882858182	1505
75	2154	34.343575124849	1537
75	2175	34.360188191516	1470
75	2196	34.376839658183	1451
75	2217	34.39353272485	1484
75	2238	34.410134591517	1403
75	2259	34.426850858184	1465
75	2280	34.443465524851	1400
75	2301	34.460136991518	1406
75	2322	34.476796458185	1397
75	2343	34.493453524852	1385
75	2364	34.510092991519	1351
75	2385	34.526763658186	1356
75	2406	34.543430324853	1356
75	2427	34.56009059152	1348
75	2448	34.576794858187	1395
75	2469	34.593484724854	1424
75	2490	34.610152191521	1425
75	2511	34.626846858188	1460
75	2532	34.643537524855	1490
75	2553	34.660208991522	1496
75	2574	34.676886058189	1509
75	2595	34.693569524856	1530
75	2616	34.710232191523	1525
75	2637	34.72689405819	1519
75	2658	34.743527124857	1477
75	2679	34.760183391524	1464
75	2700	34.776861258191	1478
75	2721	34.793515124858	1462
75	2742	34.810211391525	1499
75	2763	34.826870858192	1490
75	2784	34.843513524859	1460
75	2805	34.860180991526	1461
75	2826	34.876882058193	1504
75	2847	34.89353192486	1483
75	2868	34.910202591527	1488
75	2889	34.926844458194	1457
75	2910	34.943506324861	1451
75	2931	34.960136991528	1406
75	2952	34.976790058195	1389
75	2973	34.993445524862	1375
75	2994	35.010078591529	1333
75	3015	35.026714858196	1295
75	3036	35.043364724863	1274
75	3057	35.05998659153	1218
75	3078	35.076659658197	1226
75	3099	35.093314324864	1211
75	3120	35.109970591531	1198
75	3141	35.126642058198	1204
75	3162	35.143323924865	1223
75	3183	35.160016991532	1256
75	3204	35.176698858199	1275
75	3225	35.193396724866	1314
75	3246	35.210103391533	1364
75	3267	35.2267916582	1391
75	3288	35.243569524867	1530
75	3309	35.260304991534	1616
75	3330	35.276970058201	1614
75	3351	35.293663124868	1647
75	3372	35.310280191535	1585
75	3393	35.326928458202	1562
75	3414	35.343631924869	1608
75	3435	35.360320191536	1635
75	3471	35.376980458203	1627
75	3492	35.39363272487	1609
75	3513	35.410312991537	1626
75	3534	35.426914058204	1544
75	3555	35.443567124871	1527
75	3576	35.460216191538	1505
75	3597	35.476848458205	1462
75	3618	35.493539924872	1493
75	3639	35.510171391539	1449
75	3660	35.526800458206	1402
75	3681	35.543498324873	1441
75	3702	35.56023059154	1523
75	3723	35.576889258207	1513
75	3744	35.593616724874	1589
75	3765	35.610271391541	1574
75	3786	35.626870858208	1490
75	3807	35.643547124875	1502
75	3828	35.660234591542	1528
75	3849	35.676887658209	1511
75	3870	35.693567124876	1527
75	3891	35.710261791543	1562
75	3912	35.72698205821	1629
75	3933	35.743685524877	1675
75	3954	35.760332991544	1651
75	3975	35.777008458211	1662
75	3996	35.793614324878	1586
75	4017	35.810271391545	1574
75	4038	35.826884458212	1507
75	4059	35.843651924879	1633
75	4080	35.860326591546	1643
75	4101	35.876979658213	1626
75	4122	35.89351912488	1467
75	4143	35.910150591547	1423
75	4164	35.926778858214	1375
75	4185	35.943466324881	1401
75	4206	35.960116191548	1380
75	4227	35.976790058215	1389
75	4248	35.993418324882	1341
75	4269	36.010081791549	1337
75	4290	36.026728458216	1312
75	4311	36.043394324883	1311
75	4332	36.06006579155	1317
75	4353	36.076716458217	1297
75	4374	36.093351924884	1258
75	4395	36.109984991551	1216
75	4416	36.126670058218	1239
75	4437	36.143307124885	1202
75	4458	36.160060191552	1310
75	4479	36.176765258219	1358
75	4500	36.193395924886	1313
75	4521	36.210042591553	1288
75	4542	36.22664045822	1202
75	4563	36.243323924887	1223
75	4584	36.259984991554	1216
75	4605	36.276661258221	1228
75	4626	36.293348724888	1254
75	4647	36.310042591555	1288
75	4668	36.326710058222	1289
75	4689	36.343413524889	1335
75	4710	36.360072991556	1326
75	4731	36.376774058223	1369
75	4752	36.39343752489	1365
75	4773	36.410065791557	1317
75	4794	36.426726058224	1309
75	4815	36.443379924891	1293
75	4836	36.460066591558	1318
75	4857	36.476755658225	1346
75	4878	36.493452724892	1384
75	4899	36.510114591559	1378
75	4920	36.526804458226	1407
75	4941	36.543443124893	1372
75	4962	36.56009619156	1355
75	4983	36.576757258227	1348
75	5004	36.593444724894	1374
75	5025	36.610124191561	1390
75	5046	36.626786058228	1384
75	5067	36.643463924895	1398
75	5088	36.660108191562	1370
75	5109	36.676772458229	1367
75	5130	36.693486324896	1426
75	5151	36.710182591563	1463
75	5172	36.72691485823	1545
75	5193	36.743683124897	1672
75	5214	36.760353791564	1677
75	5235	36.776862858231	1480
75	5253	36.786711056669	68
75	5271	36.793568724898	1529
75	5292	36.810221791565	1512
75	5313	36.826940458232	1577
75	5334	36.843696724899	1689
75	5355	36.860239391566	1534
75	5376	36.876778058233	1374
75	5397	36.8934383249	1366
75	5418	36.910077791567	1332
75	5439	36.926754858234	1345
75	5460	36.943385524901	1300
75	5481	36.960091391568	1349
75	5502	36.976795658235	1396
75	5523	36.993531924902	1483
75	5544	37.010244191569	1540
75	5588	42.637568959727	68
75	5618	44.981184789876	68
75	5633	47.390833632801	48
75	5678	52.103099600219	48
75	5708	57.57236710375	48
75	5753	62.818110105724	48
75	5783	68.441149353956	48
75	5801	72.436979705017	48
75	5833	77.768917206402	48
75	5848	83.108045947329	48
75	5863	87.054098426229	48
75	5878	91.242287842815	48
75	5893	96.497767599735	48
75	5915	101.336068700713	56
76	35	12.309374420505	49
76	75	15.939006804782	49
76	120	21.946093698015	49
76	150	25.958574866775	49
76	180	31.343907985864	49
76	3450	35.365897387305	73
76	5570	39.030017265998	73
76	5600	44.51348070966	73
76	5645	47.950258311835	49
76	5660	50.08531100547	49
76	5690	53.648701758673	49
76	5720	59.629080466028	49
76	5735	62.257174079249	49
76	5765	67.879905082206	49
76	5815	73.948378266915	57
